Compound 1
Actelion Java MolfileCreator 2.0

  0  0  0  0  0  0              0 V3000
M  V30 BEGIN CTAB
M  V30 COUNTS 9 9 0 0 0
M  V30 BEGIN ATOM
M  V30 1 O 0.0 0.0 0.0 0
M  V30 2 C -1.3163 -0.7352 0.0 0
M  V30 3 N -2.6327 0.0237 0.0 0
M  V30 4 C -1.3282 -2.2295 0.0 0
M  V30 5 C -2.6445 -2.9647 0.0 0
M  V30 6 C -0.0355 -2.9647 0.0 0
M  V30 7 N -2.6564 -4.459 0.0 0
M  V30 8 C -0.0474 -4.459 0.0 0
M  V30 9 C -1.3637 -5.1942 0.0 0
M  V30 END ATOM
M  V30 BEGIN BOND
M  V30 1 2 1 2
M  V30 2 1 2 3
M  V30 3 1 2 4
M  V30 4 2 4 5
M  V30 5 1 4 6
M  V30 6 1 5 7
M  V30 7 2 6 8
M  V30 8 2 7 9
M  V30 9 1 8 9
M  V30 END BOND
M  V30 END CTAB
M  END
>  <Structure No>
1

>  <Catalog ID>
Z33546463

>  <MW (desalted)>
122.125

>  <ClogP>
-0.206

>  <HBD>
1

>  <TPSA>
55.980

>  <RotBonds>
1

>  <Target>
Poly [ADP-ribose] polymerase-1

>  <fromRegid>
CHEMBL1140

>  <Similarity>
1.0

$$$$
Compound 2
Actelion Java MolfileCreator 2.0

  0  0  0  0  0  0              0 V3000
M  V30 BEGIN CTAB
M  V30 COUNTS 10 11 0 0 0
M  V30 BEGIN ATOM
M  V30 1 N 0.0 0.0 0.0 0
M  V30 2 N -0.9031 -1.212 0.0 0
M  V30 3 C 1.4259 -0.4515 0.0 0
M  V30 4 C -0.0237 -2.4241 0.0 0
M  V30 5 C 1.414 -1.9488 0.0 0
M  V30 6 C 2.7212 0.3089 0.0 0
M  V30 7 C 2.7093 -2.6855 0.0 0
M  V30 8 C 4.0164 -0.4277 0.0 0
M  V30 9 C 4.0045 -1.925 0.0 0
M  V30 10 N 5.3117 0.3327 0.0 0
M  V30 END ATOM
M  V30 BEGIN BOND
M  V30 1 1 1 2
M  V30 2 2 1 3
M  V30 3 1 2 4
M  V30 4 1 3 5
M  V30 5 1 3 6
M  V30 6 1 5 7
M  V30 7 2 6 8
M  V30 8 2 7 9
M  V30 9 1 8 10
M  V30 10 2 4 5
M  V30 11 1 8 9
M  V30 END BOND
M  V30 END CTAB
M  END
>  <Structure No>
2

>  <Catalog ID>
Z2335631566

>  <MW (desalted)>
133.151

>  <ClogP>
1.036

>  <HBD>
2

>  <TPSA>
54.700

>  <RotBonds>
0

>  <Target>
Serine/threonine-protein kinase Chk1

>  <fromRegid>
CHEMBL559818

>  <Similarity>
0.9

$$$$
Compound 3
Actelion Java MolfileCreator 2.0

  0  0  0  0  0  0              0 V3000
M  V30 BEGIN CTAB
M  V30 COUNTS 11 11 0 0 0
M  V30 BEGIN ATOM
M  V30 1 Cl 0.0 0.0 0.0 0
M  V30 2 N 3.1551 -0.0901 0.0 0
M  V30 3 N 4.0227 -1.2958 0.0 0
M  V30 4 C 4.0227 1.1381 0.0 0
M  V30 5 C 5.4426 -0.8225 0.0 0
M  V30 6 C 5.4426 0.6873 0.0 0
M  V30 7 C 6.7384 -1.5662 0.0 0
M  V30 8 C 6.7384 1.4536 0.0 0
M  V30 9 C 8.0343 -0.8 0.0 0
M  V30 10 C 8.0343 0.7099 0.0 0
M  V30 11 N 9.3301 1.4761 0.0 0
M  V30 END ATOM
M  V30 BEGIN BOND
M  V30 1 1 2 3
M  V30 2 2 2 4
M  V30 3 1 3 5
M  V30 4 1 4 6
M  V30 5 1 5 7
M  V30 6 1 6 8
M  V30 7 2 7 9
M  V30 8 2 8 10
M  V30 9 1 10 11
M  V30 10 2 5 6
M  V30 11 1 9 10
M  V30 END BOND
M  V30 END CTAB
M  END
>  <Structure No>
3

>  <Catalog ID>
Z319217146

>  <MW (desalted)>
133.151

>  <ClogP>
1.036

>  <HBD>
2

>  <TPSA>
54.700

>  <RotBonds>
0

>  <Target>
Serine/threonine-protein kinase Chk1

>  <fromRegid>
CHEMBL559818

>  <Similarity>
0.89

$$$$
Compound 4
Actelion Java MolfileCreator 2.0

  0  0  0  0  0  0              0 V3000
M  V30 BEGIN CTAB
M  V30 COUNTS 10 11 0 0 0
M  V30 BEGIN ATOM
M  V30 1 S 0.0 0.0 0.0 0
M  V30 2 C 1.4163 0.4721 0.0 0
M  V30 3 C -0.897 1.2274 0.0 0
M  V30 4 N 2.7028 -0.2596 0.0 0
M  V30 5 C 1.4045 1.9828 0.0 0
M  V30 6 C -0.0236 2.4549 0.0 0
M  V30 7 C 3.9892 0.4957 0.0 0
M  V30 8 C 2.691 2.7382 0.0 0
M  V30 9 N 3.9774 2.0064 0.0 0
M  V30 10 O 2.6791 4.2489 0.0 0
M  V30 END ATOM
M  V30 BEGIN BOND
M  V30 1 1 1 2
M  V30 2 1 1 3
M  V30 3 1 2 4
M  V30 4 2 2 5
M  V30 5 2 3 6
M  V30 6 2 4 7
M  V30 7 1 5 8
M  V30 8 1 7 9
M  V30 9 2 8 10
M  V30 10 1 5 6
M  V30 11 1 8 9
M  V30 END BOND
M  V30 END CTAB
M  END
>  <Structure No>
4

>  <Catalog ID>
Z56761824

>  <MW (desalted)>
152.174

>  <ClogP>
0.124

>  <HBD>
1

>  <TPSA>
41.460

>  <RotBonds>
0

>  <Target>
Poly [ADP-ribose] polymerase-1

>  <fromRegid>
CHEMBL2432028

>  <Similarity>
1.0

$$$$
Compound 5
Actelion Java MolfileCreator 2.0

  0  0  0  0  0  0              0 V3000
M  V30 BEGIN CTAB
M  V30 COUNTS 10 11 0 0 0
M  V30 BEGIN ATOM
M  V30 1 N 0.0 0.0 0.0 0
M  V30 2 N 0.8761 -1.2076 0.0 0
M  V30 3 C 0.8761 1.2313 0.0 0
M  V30 4 C 2.2968 -0.734 0.0 0
M  V30 5 C 2.2968 0.7814 0.0 0
M  V30 6 C 3.5874 -1.4681 0.0 0
M  V30 7 C 3.5874 1.5391 0.0 0
M  V30 8 C 4.8779 -0.7103 0.0 0
M  V30 9 N 3.5755 3.0546 0.0 0
M  V30 10 C 4.8779 0.805 0.0 0
M  V30 END ATOM
M  V30 BEGIN BOND
M  V30 1 1 1 2
M  V30 2 2 1 3
M  V30 3 1 2 4
M  V30 4 1 3 5
M  V30 5 1 4 6
M  V30 6 1 5 7
M  V30 7 2 6 8
M  V30 8 1 7 9
M  V30 9 2 7 10
M  V30 10 2 4 5
M  V30 11 1 8 10
M  V30 END BOND
M  V30 END CTAB
M  END
>  <Structure No>
5

>  <Catalog ID>
Z381673574

>  <MW (desalted)>
133.151

>  <ClogP>
1.036

>  <HBD>
2

>  <TPSA>
54.700

>  <RotBonds>
0

>  <Target>
Serine/threonine-protein kinase Chk1

>  <fromRegid>
CHEMBL559818

>  <Similarity>
0.86

$$$$
Compound 6
Actelion Java MolfileCreator 2.0

  0  0  0  0  0  0              0 V3000
M  V30 BEGIN CTAB
M  V30 COUNTS 10 11 0 0 0
M  V30 BEGIN ATOM
M  V30 1 O 0.0 0.0 0.0 0
M  V30 2 C 0.4479 1.438 0.0 0
M  V30 3 N -0.4479 2.6639 0.0 0
M  V30 4 C 1.8624 1.9095 0.0 0
M  V30 5 N 0.4243 3.8898 0.0 0
M  V30 6 C 1.8506 3.4183 0.0 0
M  V30 7 C 3.1472 1.1669 0.0 0
M  V30 8 C 3.1354 4.1845 0.0 0
M  V30 9 C 4.4321 1.9331 0.0 0
M  V30 10 C 4.4203 3.4419 0.0 0
M  V30 END ATOM
M  V30 BEGIN BOND
M  V30 1 2 1 2
M  V30 2 1 2 3
M  V30 3 1 2 4
M  V30 4 1 3 5
M  V30 5 2 4 6
M  V30 6 1 4 7
M  V30 7 1 6 8
M  V30 8 2 7 9
M  V30 9 2 8 10
M  V30 10 1 5 6
M  V30 11 1 9 10
M  V30 END BOND
M  V30 END CTAB
M  END
>  <Structure No>
6

>  <Catalog ID>
Z586248764

>  <MW (desalted)>
134.135

>  <ClogP>
1.529

>  <HBD>
2

>  <TPSA>
41.130

>  <RotBonds>
0

>  <Target>
Serine/threonine-protein kinase Chk1

>  <fromRegid>
CHEMBL2001613

>  <Similarity>
0.86

$$$$
Compound 7
Actelion Java MolfileCreator 2.0

  0  0  0  0  0  0              0 V3000
M  V30 BEGIN CTAB
M  V30 COUNTS 10 10 0 0 0
M  V30 BEGIN ATOM
M  V30 1 O 0.0 0.0 0.0 0
M  V30 2 C -0.0118 1.5116 0.0 0
M  V30 3 N -1.3226 2.2674 0.0 0
M  V30 4 C 1.2754 2.2674 0.0 0
M  V30 5 C 2.5627 1.5352 0.0 0
M  V30 6 C 1.2636 3.7791 0.0 0
M  V30 7 N 3.8499 2.291 0.0 0
M  V30 8 C 2.5508 4.5349 0.0 0
M  V30 9 C 3.8381 3.8027 0.0 0
M  V30 10 C 2.539 6.0465 0.0 0
M  V30 END ATOM
M  V30 BEGIN BOND
M  V30 1 2 1 2
M  V30 2 1 2 3
M  V30 3 1 2 4
M  V30 4 2 4 5
M  V30 5 1 4 6
M  V30 6 1 5 7
M  V30 7 2 6 8
M  V30 8 2 7 9
M  V30 9 1 8 10
M  V30 10 1 8 9
M  V30 END BOND
M  V30 END CTAB
M  END
>  <Structure No>
7

>  <Catalog ID>
Z1203579033

>  <MW (desalted)>
136.151

>  <ClogP>
0.293

>  <HBD>
1

>  <TPSA>
55.980

>  <RotBonds>
1

>  <Target>
Poly [ADP-ribose] polymerase-1

>  <fromRegid>
CHEMBL1140

>  <Similarity>
0.9

$$$$
Compound 8
Actelion Java MolfileCreator 2.0

  0  0  0  0  0  0              0 V3000
M  V30 BEGIN CTAB
M  V30 COUNTS 11 12 0 0 0
M  V30 BEGIN ATOM
M  V30 1 O 0.0 0.0 0.0 0
M  V30 2 C -0.0117 1.5071 0.0 0
M  V30 3 N -1.3187 2.2725 0.0 0
M  V30 4 C 1.2716 2.2725 0.0 0
M  V30 5 C -1.3305 3.7796 0.0 0
M  V30 6 C 1.2598 3.7796 0.0 0
M  V30 7 C 2.555 1.5307 0.0 0
M  V30 8 N -0.047 4.545 0.0 0
M  V30 9 C 2.5433 4.545 0.0 0
M  V30 10 C 3.8385 2.296 0.0 0
M  V30 11 C 3.8267 3.8032 0.0 0
M  V30 END ATOM
M  V30 BEGIN BOND
M  V30 1 2 1 2
M  V30 2 1 2 3
M  V30 3 1 2 4
M  V30 4 1 3 5
M  V30 5 2 4 6
M  V30 6 1 4 7
M  V30 7 2 5 8
M  V30 8 1 6 9
M  V30 9 2 7 10
M  V30 10 2 9 11
M  V30 11 1 6 8
M  V30 12 1 10 11
M  V30 END BOND
M  V30 END CTAB
M  END
>  <Structure No>
8

>  <Catalog ID>
Z56862715

>  <MW (desalted)>
146.146

>  <ClogP>
0.305

>  <HBD>
1

>  <TPSA>
41.460

>  <RotBonds>
0

>  <Target>
Poly [ADP-ribose] polymerase-1

>  <fromRegid>
CHEMBL266540

>  <Similarity>
1.0

$$$$
Compound 9
Actelion Java MolfileCreator 2.0

  0  0  0  0  0  0              0 V3000
M  V30 BEGIN CTAB
M  V30 COUNTS 11 11 0 0 0
M  V30 BEGIN ATOM
M  V30 1 O 0.0 0.0 0.0 0
M  V30 2 C -1.3143 -0.7341 0.0 0
M  V30 3 N -2.6286 0.0236 0.0 0
M  V30 4 C -1.3261 -2.226 0.0 0
M  V30 5 C -2.6404 1.5392 0.0 0
M  V30 6 C -2.6404 -2.9601 0.0 0
M  V30 7 C -0.0355 -2.9601 0.0 0
M  V30 8 C -2.6522 -4.452 0.0 0
M  V30 9 C -0.0473 -4.452 0.0 0
M  V30 10 N -3.9666 -5.1861 0.0 0
M  V30 11 C -1.3616 -5.1861 0.0 0
M  V30 END ATOM
M  V30 BEGIN BOND
M  V30 1 2 1 2
M  V30 2 1 2 3
M  V30 3 1 2 4
M  V30 4 1 3 5
M  V30 5 2 4 6
M  V30 6 1 4 7
M  V30 7 1 6 8
M  V30 8 2 7 9
M  V30 9 1 8 10
M  V30 10 2 8 11
M  V30 11 1 9 11
M  V30 END BOND
M  V30 END CTAB
M  END
>  <Structure No>
9

>  <Catalog ID>
Z57040519

>  <MW (desalted)>
150.178

>  <ClogP>
-0.046

>  <HBD>
2

>  <TPSA>
55.120

>  <RotBonds>
1

>  <Target>
Poly [ADP-ribose] polymerase-1

>  <fromRegid>
CHEMBL81977

>  <Similarity>
0.86

$$$$
Compound 10
Actelion Java MolfileCreator 2.0

  0  0  0  0  0  0              0 V3000
M  V30 BEGIN CTAB
M  V30 COUNTS 11 11 0 0 0
M  V30 BEGIN ATOM
M  V30 1 O 0.0 0.0 0.0 0
M  V30 2 C -1.3035 0.7516 0.0 0
M  V30 3 N -2.6071 0.0117 0.0 0
M  V30 4 C -1.3153 2.2548 0.0 0
M  V30 5 C -0.0352 3.0064 0.0 0
M  V30 6 C -2.6189 3.0064 0.0 0
M  V30 7 C -0.0469 4.5097 0.0 0
M  V30 8 C -2.6306 4.5097 0.0 0
M  V30 9 C -1.3505 5.2613 0.0 0
M  V30 10 O -1.3623 6.7645 0.0 0
M  V30 11 C -2.6659 7.5162 0.0 0
M  V30 END ATOM
M  V30 BEGIN BOND
M  V30 1 2 1 2
M  V30 2 1 2 3
M  V30 3 1 2 4
M  V30 4 2 4 5
M  V30 5 1 4 6
M  V30 6 1 5 7
M  V30 7 2 6 8
M  V30 8 2 7 9
M  V30 9 1 9 10
M  V30 10 1 10 11
M  V30 11 1 8 9
M  V30 END BOND
M  V30 END CTAB
M  END
>  <Structure No>
10

>  <Catalog ID>
Z33546492

>  <MW (desalted)>
151.163

>  <ClogP>
0.836

>  <HBD>
1

>  <TPSA>
52.320

>  <RotBonds>
2

>  <Target>
Poly [ADP-ribose] polymerase-1

>  <fromRegid>
CHEMBL123617

>  <Similarity>
0.86

$$$$
Compound 11
Actelion Java MolfileCreator 2.0

  0  0  0  0  0  0              0 V3000
M  V30 BEGIN CTAB
M  V30 COUNTS 11 11 0 0 0
M  V30 BEGIN ATOM
M  V30 1 F 0.0 0.0 0.0 0
M  V30 2 C 1.2896 0.7572 0.0 0
M  V30 3 C 2.5793 0.0236 0.0 0
M  V30 4 C 1.2778 2.2717 0.0 0
M  V30 5 F 2.5675 -1.4671 0.0 0
M  V30 6 C 3.869 0.7809 0.0 0
M  V30 7 C 2.5675 3.0289 0.0 0
M  V30 8 C 3.8571 2.2953 0.0 0
M  V30 9 C 2.5556 4.5434 0.0 0
M  V30 10 O 3.8453 5.3006 0.0 0
M  V30 11 N 1.2423 5.3006 0.0 0
M  V30 END ATOM
M  V30 BEGIN BOND
M  V30 1 1 1 2
M  V30 2 2 2 3
M  V30 3 1 2 4
M  V30 4 1 3 5
M  V30 5 1 3 6
M  V30 6 2 4 7
M  V30 7 2 6 8
M  V30 8 1 7 9
M  V30 9 2 9 10
M  V30 10 1 9 11
M  V30 11 1 7 8
M  V30 END BOND
M  V30 END CTAB
M  END
>  <Structure No>
11

>  <Catalog ID>
Z82670082

>  <MW (desalted)>
157.118

>  <ClogP>
1.098

>  <HBD>
1

>  <TPSA>
43.090

>  <RotBonds>
1

>  <Target>
Poly [ADP-ribose] polymerase-1

>  <fromRegid>
CHEMBL125596

>  <Similarity>
0.88

$$$$
Compound 12
Actelion Java MolfileCreator 2.0

  0  0  0  0  0  0              0 V3000
M  V30 BEGIN CTAB
M  V30 COUNTS 11 12 0 0 0
M  V30 BEGIN ATOM
M  V30 1 O 0.0 0.0 0.0 0
M  V30 2 C -0.0117 1.5071 0.0 0
M  V30 3 N -1.3187 2.2725 0.0 0
M  V30 4 C 1.2716 2.2725 0.0 0
M  V30 5 N -1.3305 3.7796 0.0 0
M  V30 6 C 1.2598 3.7796 0.0 0
M  V30 7 C 2.555 1.5307 0.0 0
M  V30 8 C -0.047 4.545 0.0 0
M  V30 9 C 2.5433 4.545 0.0 0
M  V30 10 C 3.8385 2.296 0.0 0
M  V30 11 C 3.8267 3.8032 0.0 0
M  V30 END ATOM
M  V30 BEGIN BOND
M  V30 1 1 1 2
M  V30 2 2 2 3
M  V30 3 1 2 4
M  V30 4 1 3 5
M  V30 5 1 4 6
M  V30 6 2 4 7
M  V30 7 2 5 8
M  V30 8 2 6 9
M  V30 9 1 7 10
M  V30 10 1 9 11
M  V30 11 1 6 8
M  V30 12 2 10 11
M  V30 END BOND
M  V30 END CTAB
M  END
>  <Structure No>
12

>  <Catalog ID>
Z203045280

>  <MW (desalted)>
146.146

>  <ClogP>
1.356

>  <HBD>
1

>  <TPSA>
46.010

>  <RotBonds>
0

>  <Target>
Poly [ADP-ribose] polymerase-1

>  <fromRegid>
CHEMBL124706

>  <Similarity>
1.0

$$$$
Compound 13
Actelion Java MolfileCreator 2.0

  0  0  0  0  0  0              0 V3000
M  V30 BEGIN CTAB
M  V30 COUNTS 11 11 0 0 0
M  V30 BEGIN ATOM
M  V30 1 O 0.0 0.0 0.0 0
M  V30 2 C -1.3035 0.7516 0.0 0
M  V30 3 N -2.6071 0.0117 0.0 0
M  V30 4 C -1.3153 2.2548 0.0 0
M  V30 5 C -2.6189 3.0064 0.0 0
M  V30 6 C -0.0352 3.0064 0.0 0
M  V30 7 C -2.6306 4.5097 0.0 0
M  V30 8 C -0.0469 4.5097 0.0 0
M  V30 9 N -3.9342 5.2613 0.0 0
M  V30 10 C -1.3505 5.2613 0.0 0
M  V30 11 C -1.3623 6.7645 0.0 0
M  V30 END ATOM
M  V30 BEGIN BOND
M  V30 1 2 1 2
M  V30 2 1 2 3
M  V30 3 1 2 4
M  V30 4 2 4 5
M  V30 5 1 4 6
M  V30 6 1 5 7
M  V30 7 2 6 8
M  V30 8 1 7 9
M  V30 9 2 7 10
M  V30 10 1 10 11
M  V30 11 1 8 10
M  V30 END BOND
M  V30 END CTAB
M  END
>  <Structure No>
13

>  <Catalog ID>
Z57912417

>  <MW (desalted)>
150.178

>  <ClogP>
0.197

>  <HBD>
2

>  <TPSA>
69.110

>  <RotBonds>
1

>  <Target>
Poly [ADP-ribose] polymerase-1

>  <fromRegid>
CHEMBL81977

>  <Similarity>
0.88

$$$$
Compound 14
Actelion Java MolfileCreator 2.0

  0  0  0  0  0  0              0 V3000
M  V30 BEGIN CTAB
M  V30 COUNTS 12 11 0 0 0
M  V30 BEGIN ATOM
M  V30 1 Cl 0.0 0.0 0.0 0
M  V30 2 O 6.7548 -3.2836 0.0 0
M  V30 3 C 5.4531 -2.5213 0.0 0
M  V30 4 N 4.1514 -3.2601 0.0 0
M  V30 5 C 5.4414 -1.0202 0.0 0
M  V30 6 C 6.7197 -0.2697 0.0 0
M  V30 7 C 4.1397 -0.2697 0.0 0
M  V30 8 C 6.7079 1.2313 0.0 0
M  V30 9 C 4.1279 1.2313 0.0 0
M  V30 10 C 5.4062 1.9936 0.0 0
M  V30 11 N 5.3945 3.4947 0.0 0
M  V30 12 C 4.0928 4.2569 0.0 0
M  V30 END ATOM
M  V30 BEGIN BOND
M  V30 1 2 2 3
M  V30 2 1 3 4
M  V30 3 1 3 5
M  V30 4 2 5 6
M  V30 5 1 5 7
M  V30 6 1 6 8
M  V30 7 2 7 9
M  V30 8 2 8 10
M  V30 9 1 10 11
M  V30 10 1 11 12
M  V30 11 1 9 10
M  V30 END BOND
M  V30 END CTAB
M  END
>  <Structure No>
14

>  <Catalog ID>
Z744754554

>  <MW (desalted)>
150.178

>  <ClogP>
0.500

>  <HBD>
2

>  <TPSA>
55.120

>  <RotBonds>
2

>  <Target>
Poly [ADP-ribose] polymerase-1

>  <fromRegid>
CHEMBL332444

>  <Similarity>
0.86

$$$$
Compound 15
Actelion Java MolfileCreator 2.0

  0  0  0  0  0  0              0 V3000
M  V30 BEGIN CTAB
M  V30 COUNTS 11 12 0 0 0
M  V30 BEGIN ATOM
M  V30 1 O 0.0 0.0 0.0 0
M  V30 2 C -0.0118 -1.4905 0.0 0
M  V30 3 C -1.3249 -2.2358 0.0 0
M  V30 4 C 1.2776 -2.2358 0.0 0
M  V30 5 C -1.3368 -3.7264 0.0 0
M  V30 6 C -2.7682 -1.7626 0.0 0
M  V30 7 C 1.2658 -3.7264 0.0 0
M  V30 8 N -2.78 -4.176 0.0 0
M  V30 9 C -0.0473 -4.4717 0.0 0
M  V30 10 N -3.6673 -2.9693 0.0 0
M  V30 11 C -3.2532 -5.5956 0.0 0
M  V30 END ATOM
M  V30 BEGIN BOND
M  V30 1 2 1 2
M  V30 2 1 2 3
M  V30 3 1 2 4
M  V30 4 2 3 5
M  V30 5 1 3 6
M  V30 6 1 4 7
M  V30 7 1 5 8
M  V30 8 1 5 9
M  V30 9 2 6 10
M  V30 10 1 8 11
M  V30 11 1 7 9
M  V30 12 1 8 10
M  V30 END BOND
M  V30 END CTAB
M  END
>  <Structure No>
15

>  <Catalog ID>
Z336028554

>  <MW (desalted)>
150.178

>  <ClogP>
0.298

>  <HBD>
0

>  <TPSA>
34.890

>  <RotBonds>
0

>  <Target>
Serine/threonine-protein kinase Chk2

>  <fromRegid>
CHEMBL1981107

>  <Similarity>
1.0

$$$$
Compound 16
Actelion Java MolfileCreator 2.0

  0  0  0  0  0  0              0 V3000
M  V30 BEGIN CTAB
M  V30 COUNTS 11 12 0 0 0
M  V30 BEGIN ATOM
M  V30 1 N 0.0 0.0 0.0 0
M  V30 2 C -1.307 0.7536 0.0 0
M  V30 3 C -0.0117 -1.4836 0.0 0
M  V30 4 N -1.3188 2.2608 0.0 0
M  V30 5 C -2.614 0.0235 0.0 0
M  V30 6 N -1.3188 -2.2137 0.0 0
M  V30 7 C -2.6258 3.0144 0.0 0
M  V30 8 N -4.0506 0.4945 0.0 0
M  V30 9 C -2.6258 -1.4601 0.0 0
M  V30 10 C -4.9455 -0.7065 0.0 0
M  V30 11 N -4.0623 -1.9075 0.0 0
M  V30 END ATOM
M  V30 BEGIN BOND
M  V30 1 2 1 2
M  V30 2 1 1 3
M  V30 3 1 2 4
M  V30 4 1 2 5
M  V30 5 2 3 6
M  V30 6 1 4 7
M  V30 7 1 5 8
M  V30 8 2 5 9
M  V30 9 1 8 10
M  V30 10 1 9 11
M  V30 11 1 6 9
M  V30 12 2 10 11
M  V30 END BOND
M  V30 END CTAB
M  END
>  <Structure No>
16

>  <Catalog ID>
Z372962306

>  <MW (desalted)>
149.153

>  <ClogP>
0.682

>  <HBD>
2

>  <TPSA>
66.490

>  <RotBonds>
1

>  <Target>
Serine/threonine-protein kinase Chk2

>  <fromRegid>
CHEMBL407391

>  <Similarity>
0.91

$$$$
Compound 17
Actelion Java MolfileCreator 2.0

  0  0  0  0  0  0              0 V3000
M  V30 BEGIN CTAB
M  V30 COUNTS 11 11 0 0 0
M  V30 BEGIN ATOM
M  V30 1 F 0.0 0.0 0.0 0
M  V30 2 C 1.2952 -0.7367 0.0 0
M  V30 3 C 2.5904 0.0237 0.0 0
M  V30 4 C 1.2833 -2.2339 0.0 0
M  V30 5 C 3.8857 -0.7129 0.0 0
M  V30 6 C 2.5786 1.5447 0.0 0
M  V30 7 C 2.5786 -2.9707 0.0 0
M  V30 8 C 3.8738 -2.2102 0.0 0
M  V30 9 C 2.5667 -4.4679 0.0 0
M  V30 10 O 3.8619 -5.2166 0.0 0
M  V30 11 N 1.2477 -5.2166 0.0 0
M  V30 END ATOM
M  V30 BEGIN BOND
M  V30 1 1 1 2
M  V30 2 2 2 3
M  V30 3 1 2 4
M  V30 4 1 3 5
M  V30 5 1 3 6
M  V30 6 2 4 7
M  V30 7 2 5 8
M  V30 8 1 7 9
M  V30 9 2 9 10
M  V30 10 1 9 11
M  V30 11 1 7 8
M  V30 END BOND
M  V30 END CTAB
M  END
>  <Structure No>
17

>  <Catalog ID>
Z116821650

>  <MW (desalted)>
153.154

>  <ClogP>
1.465

>  <HBD>
1

>  <TPSA>
43.090

>  <RotBonds>
1

>  <Target>
Poly [ADP-ribose] polymerase-1

>  <fromRegid>
CHEMBL125759

>  <Similarity>
0.87

$$$$
Compound 18
Actelion Java MolfileCreator 2.0

  0  0  0  0  0  0              0 V3000
M  V30 BEGIN CTAB
M  V30 COUNTS 11 11 0 0 0
M  V30 BEGIN ATOM
M  V30 1 F 0.0 0.0 0.0 0
M  V30 2 C -1.3041 0.7519 0.0 0
M  V30 3 C -2.6083 0.0234 0.0 0
M  V30 4 C -1.3159 2.2558 0.0 0
M  V30 5 C -3.9124 0.7754 0.0 0
M  V30 6 C -2.62 3.0077 0.0 0
M  V30 7 F -5.2166 0.0469 0.0 0
M  V30 8 C -3.9242 2.2793 0.0 0
M  V30 9 C -2.6318 4.5116 0.0 0
M  V30 10 O -1.3511 5.2636 0.0 0
M  V30 11 N -3.9359 5.2636 0.0 0
M  V30 END ATOM
M  V30 BEGIN BOND
M  V30 1 1 1 2
M  V30 2 2 2 3
M  V30 3 1 2 4
M  V30 4 1 3 5
M  V30 5 2 4 6
M  V30 6 1 5 7
M  V30 7 2 5 8
M  V30 8 1 6 9
M  V30 9 2 9 10
M  V30 10 1 9 11
M  V30 11 1 6 8
M  V30 END BOND
M  V30 END CTAB
M  END
>  <Structure No>
18

>  <Catalog ID>
Z33545379

>  <MW (desalted)>
157.118

>  <ClogP>
1.168

>  <HBD>
1

>  <TPSA>
43.090

>  <RotBonds>
1

>  <Target>
Poly [ADP-ribose] polymerase-1

>  <fromRegid>
CHEMBL125596

>  <Similarity>
0.88

$$$$
Compound 19
Actelion Java MolfileCreator 2.0

  0  0  0  0  0  0              0 V3000
M  V30 BEGIN CTAB
M  V30 COUNTS 11 12 0 0 0
M  V30 BEGIN ATOM
M  V30 1 O 0.0 0.0 0.0 0
M  V30 2 C -0.0117 1.5071 0.0 0
M  V30 3 N -1.3187 2.2725 0.0 0
M  V30 4 C 1.2716 2.2725 0.0 0
M  V30 5 C -1.3305 3.7796 0.0 0
M  V30 6 C 1.2598 3.7796 0.0 0
M  V30 7 C 2.555 1.5307 0.0 0
M  V30 8 C -0.047 4.545 0.0 0
M  V30 9 C 2.5433 4.545 0.0 0
M  V30 10 C 3.8385 2.296 0.0 0
M  V30 11 C 3.8267 3.8032 0.0 0
M  V30 END ATOM
M  V30 BEGIN BOND
M  V30 1 2 1 2
M  V30 2 1 2 3
M  V30 3 1 2 4
M  V30 4 1 3 5
M  V30 5 2 4 6
M  V30 6 1 4 7
M  V30 7 1 5 8
M  V30 8 1 6 9
M  V30 9 2 7 10
M  V30 10 2 9 11
M  V30 11 1 6 8
M  V30 12 1 10 11
M  V30 END BOND
M  V30 END CTAB
M  END
>  <Structure No>
19

>  <Catalog ID>
Z56801375

>  <MW (desalted)>
147.174

>  <ClogP>
0.996

>  <HBD>
1

>  <TPSA>
29.100

>  <RotBonds>
0

>  <Target>
Poly [ADP-ribose] polymerase-1

>  <fromRegid>
CHEMBL1688212

>  <Similarity>
1.0

$$$$
Compound 20
Actelion Java MolfileCreator 2.0

  0  0  0  0  0  0              0 V3000
M  V30 BEGIN CTAB
M  V30 COUNTS 11 12 0 0 0
M  V30 BEGIN ATOM
M  V30 1 N 0.0 0.0 0.0 0
M  V30 2 C -1.307 0.7536 0.0 0
M  V30 3 C -0.0117 -1.4836 0.0 0
M  V30 4 N -1.3188 2.2608 0.0 0
M  V30 5 C -2.614 0.0235 0.0 0
M  V30 6 N -1.3188 -2.2137 0.0 0
M  V30 7 C -2.6258 3.0144 0.0 0
M  V30 8 C -2.6258 -1.4601 0.0 0
M  V30 9 C -4.0506 0.4945 0.0 0
M  V30 10 N -4.0623 -1.9075 0.0 0
M  V30 11 N -4.9455 -0.7065 0.0 0
M  V30 END ATOM
M  V30 BEGIN BOND
M  V30 1 2 1 2
M  V30 2 1 1 3
M  V30 3 1 2 4
M  V30 4 1 2 5
M  V30 5 2 3 6
M  V30 6 1 4 7
M  V30 7 2 5 8
M  V30 8 1 5 9
M  V30 9 1 8 10
M  V30 10 2 9 11
M  V30 11 1 6 8
M  V30 12 1 10 11
M  V30 END BOND
M  V30 END CTAB
M  END
>  <Structure No>
20

>  <Catalog ID>
Z57101324

>  <MW (desalted)>
149.153

>  <ClogP>
0.822

>  <HBD>
2

>  <TPSA>
66.490

>  <RotBonds>
1

>  <Target>
Serine/threonine-protein kinase Chk1

>  <fromRegid>
CHEMBL1969787

>  <Similarity>
0.91

$$$$
Compound 21
Actelion Java MolfileCreator 2.0

  0  0  0  0  0  0              0 V3000
M  V30 BEGIN CTAB
M  V30 COUNTS 11 12 0 0 0
M  V30 BEGIN ATOM
M  V30 1 O 0.0 0.0 0.0 0
M  V30 2 C -0.0117 1.5071 0.0 0
M  V30 3 N -1.3187 2.2725 0.0 0
M  V30 4 C 1.2716 2.2725 0.0 0
M  V30 5 C -1.3305 3.7796 0.0 0
M  V30 6 C 1.2598 3.7796 0.0 0
M  V30 7 C 2.555 1.5307 0.0 0
M  V30 8 C -0.047 4.545 0.0 0
M  V30 9 C 2.5433 4.545 0.0 0
M  V30 10 C 3.8385 2.296 0.0 0
M  V30 11 N 3.8267 3.8032 0.0 0
M  V30 END ATOM
M  V30 BEGIN BOND
M  V30 1 1 1 2
M  V30 2 2 2 3
M  V30 3 1 2 4
M  V30 4 1 3 5
M  V30 5 1 4 6
M  V30 6 2 4 7
M  V30 7 2 5 8
M  V30 8 2 6 9
M  V30 9 1 7 10
M  V30 10 1 9 11
M  V30 11 1 6 8
M  V30 12 2 10 11
M  V30 END BOND
M  V30 END CTAB
M  END
>  <Structure No>
21

>  <Catalog ID>
Z1198157282

>  <MW (desalted)>
146.146

>  <ClogP>
1.264

>  <HBD>
1

>  <TPSA>
46.010

>  <RotBonds>
0

>  <Target>
Poly [ADP-ribose] polymerase-1

>  <fromRegid>
CHEMBL339695

>  <Similarity>
0.93

$$$$
Compound 22
Actelion Java MolfileCreator 2.0

  0  0  0  0  0  0              0 V3000
M  V30 BEGIN CTAB
M  V30 COUNTS 11 12 0 0 0
M  V30 BEGIN ATOM
M  V30 1 S 0.0 0.0 0.0 0
M  V30 2 C 1.4241 -0.4509 0.0 0
M  V30 3 C -0.9019 -1.2105 0.0 0
M  V30 4 N 2.7178 0.3204 0.0 0
M  V30 5 C 1.4123 -1.9464 0.0 0
M  V30 6 C -0.0237 -2.4211 0.0 0
M  V30 7 C 4.0114 -0.4272 0.0 0
M  V30 8 C 2.7059 -2.6941 0.0 0
M  V30 9 C -0.4984 -3.8453 0.0 0
M  V30 10 N 3.9996 -1.9226 0.0 0
M  V30 11 O 2.6941 -4.1895 0.0 0
M  V30 END ATOM
M  V30 BEGIN BOND
M  V30 1 1 1 2
M  V30 2 1 1 3
M  V30 3 1 2 4
M  V30 4 2 2 5
M  V30 5 2 3 6
M  V30 6 2 4 7
M  V30 7 1 5 8
M  V30 8 1 6 9
M  V30 9 1 7 10
M  V30 10 2 8 11
M  V30 11 1 5 6
M  V30 12 1 8 10
M  V30 END BOND
M  V30 END CTAB
M  END
>  <Structure No>
22

>  <Catalog ID>
Z1198152023

>  <MW (desalted)>
166.200

>  <ClogP>
0.623

>  <HBD>
1

>  <TPSA>
41.460

>  <RotBonds>
0

>  <Target>
Poly [ADP-ribose] polymerase-1

>  <fromRegid>
CHEMBL2432028

>  <Similarity>
0.89

$$$$
Compound 23
Actelion Java MolfileCreator 2.0

  0  0  0  0  0  0              0 V3000
M  V30 BEGIN CTAB
M  V30 COUNTS 11 11 0 0 0
M  V30 BEGIN ATOM
M  V30 1 Cl 0.0 0.0 0.0 0
M  V30 2 C 1.2878 0.7561 0.0 0
M  V30 3 C 1.276 2.2684 0.0 0
M  V30 4 C 2.5756 0.0236 0.0 0
M  V30 5 C 2.5638 3.0246 0.0 0
M  V30 6 C 3.8634 0.7797 0.0 0
M  V30 7 C 2.552 4.5369 0.0 0
M  V30 8 C 3.8516 2.292 0.0 0
M  V30 9 O 3.8398 5.293 0.0 0
M  V30 10 N 1.2405 5.293 0.0 0
M  V30 11 C 1.2287 6.8053 0.0 0
M  V30 END ATOM
M  V30 BEGIN BOND
M  V30 1 1 1 2
M  V30 2 2 2 3
M  V30 3 1 2 4
M  V30 4 1 3 5
M  V30 5 2 4 6
M  V30 6 1 5 7
M  V30 7 2 5 8
M  V30 8 2 7 9
M  V30 9 1 7 10
M  V30 10 1 10 11
M  V30 11 1 6 8
M  V30 END BOND
M  V30 END CTAB
M  END
>  <Structure No>
23

>  <Catalog ID>
Z32016383

>  <MW (desalted)>
169.608

>  <ClogP>
1.776

>  <HBD>
1

>  <TPSA>
29.100

>  <RotBonds>
1

>  <Target>
Poly [ADP-ribose] polymerase-1

>  <fromRegid>
CHEMBL419245

>  <Similarity>
0.85

$$$$
Compound 24
Actelion Java MolfileCreator 2.0

  0  0  0  0  0  0              0 V3000
M  V30 BEGIN CTAB
M  V30 COUNTS 11 12 0 0 0
M  V30 BEGIN ATOM
M  V30 1 O 0.0 0.0 0.0 0
M  V30 2 C -0.0117 1.5071 0.0 0
M  V30 3 N -1.3187 2.2725 0.0 0
M  V30 4 C 1.2716 2.2725 0.0 0
M  V30 5 C -1.3305 3.7796 0.0 0
M  V30 6 N 2.555 1.5307 0.0 0
M  V30 7 C 1.2598 3.7796 0.0 0
M  V30 8 C -0.047 4.545 0.0 0
M  V30 9 C 3.8385 2.296 0.0 0
M  V30 10 C 2.5433 4.545 0.0 0
M  V30 11 C 3.8267 3.8032 0.0 0
M  V30 END ATOM
M  V30 BEGIN BOND
M  V30 1 1 1 2
M  V30 2 2 2 3
M  V30 3 1 2 4
M  V30 4 1 3 5
M  V30 5 2 4 6
M  V30 6 1 4 7
M  V30 7 2 5 8
M  V30 8 1 6 9
M  V30 9 2 7 10
M  V30 10 2 9 11
M  V30 11 1 7 8
M  V30 12 1 10 11
M  V30 END BOND
M  V30 END CTAB
M  END
>  <Structure No>
24

>  <Catalog ID>
Z1201626988

>  <MW (desalted)>
146.146

>  <ClogP>
1.474

>  <HBD>
1

>  <TPSA>
46.010

>  <RotBonds>
0

>  <Target>
Poly [ADP-ribose] polymerase-1

>  <fromRegid>
CHEMBL107738

>  <Similarity>
0.94

$$$$
Compound 25
Actelion Java MolfileCreator 2.0

  0  0  0  0  0  0              0 V3000
M  V30 BEGIN CTAB
M  V30 COUNTS 11 12 0 0 0
M  V30 BEGIN ATOM
M  V30 1 Cl 0.0 0.0 0.0 0
M  V30 2 C -0.0118 -1.4905 0.0 0
M  V30 3 C -1.3249 -2.2358 0.0 0
M  V30 4 C 1.2776 -2.2358 0.0 0
M  V30 5 N -2.7682 -1.7626 0.0 0
M  V30 6 C -1.3368 -3.7264 0.0 0
M  V30 7 C 1.2658 -3.7264 0.0 0
M  V30 8 N -3.6673 -2.9693 0.0 0
M  V30 9 C -2.78 -4.176 0.0 0
M  V30 10 C -0.0473 -4.4717 0.0 0
M  V30 11 N -3.2532 -5.5956 0.0 0
M  V30 END ATOM
M  V30 BEGIN BOND
M  V30 1 1 1 2
M  V30 2 2 2 3
M  V30 3 1 2 4
M  V30 4 1 3 5
M  V30 5 1 3 6
M  V30 6 2 4 7
M  V30 7 1 5 8
M  V30 8 1 6 9
M  V30 9 2 6 10
M  V30 10 1 9 11
M  V30 11 1 7 10
M  V30 12 2 8 9
M  V30 END BOND
M  V30 END CTAB
M  END
>  <Structure No>
25

>  <Catalog ID>
Z1201624116

>  <MW (desalted)>
167.596

>  <ClogP>
2.085

>  <HBD>
2

>  <TPSA>
54.700

>  <RotBonds>
0

>  <Target>
Serine/threonine-protein kinase Chk1

>  <fromRegid>
CHEMBL1980161

>  <Similarity>
1.0

$$$$
Compound 26
Actelion Java MolfileCreator 2.0

  0  0  0  0  0  0              0 V3000
M  V30 BEGIN CTAB
M  V30 COUNTS 11 12 0 0 0
M  V30 BEGIN ATOM
M  V30 1 O 0.0 0.0 0.0 0
M  V30 2 N -0.8962 1.2264 0.0 0
M  V30 3 C 1.4151 0.4717 0.0 0
M  V30 4 C -0.0235 2.4528 0.0 0
M  V30 5 C 1.4033 1.9811 0.0 0
M  V30 6 C 2.7005 -0.2594 0.0 0
M  V30 7 N -0.4952 3.8915 0.0 0
M  V30 8 C 2.6887 2.7358 0.0 0
M  V30 9 C 3.9858 0.4952 0.0 0
M  V30 10 C 3.9741 2.0047 0.0 0
M  V30 11 C 2.6769 4.2453 0.0 0
M  V30 END ATOM
M  V30 BEGIN BOND
M  V30 1 1 1 2
M  V30 2 1 1 3
M  V30 3 2 2 4
M  V30 4 2 3 5
M  V30 5 1 3 6
M  V30 6 1 4 7
M  V30 7 1 5 8
M  V30 8 2 6 9
M  V30 9 2 8 10
M  V30 10 1 8 11
M  V30 11 1 4 5
M  V30 12 1 9 10
M  V30 END BOND
M  V30 END CTAB
M  END
>  <Structure No>
26

>  <Catalog ID>
Z1203653600

>  <MW (desalted)>
148.162

>  <ClogP>
1.652

>  <HBD>
1

>  <TPSA>
52.050

>  <RotBonds>
0

>  <Target>
Serine/threonine-protein kinase Chk1

>  <fromRegid>
CHEMBL1980376

>  <Similarity>
0.89

$$$$
Compound 27
Actelion Java MolfileCreator 2.0

  0  0  0  0  0  0              0 V3000
M  V30 BEGIN CTAB
M  V30 COUNTS 11 12 0 0 0
M  V30 BEGIN ATOM
M  V30 1 Cl 0.0 0.0 0.0 0
M  V30 2 C -1.3036 0.7516 0.0 0
M  V30 3 C -1.3153 2.2548 0.0 0
M  V30 4 C -2.6072 0.0234 0.0 0
M  V30 5 Cl -0.0352 3.0065 0.0 0
M  V30 6 C -2.6189 3.0065 0.0 0
M  V30 7 C -3.9108 0.7751 0.0 0
M  V30 8 C -3.9225 2.2783 0.0 0
M  V30 9 N -5.3436 0.3288 0.0 0
M  V30 10 N -5.3553 2.7481 0.0 0
M  V30 11 N -6.2361 1.5502 0.0 0
M  V30 END ATOM
M  V30 BEGIN BOND
M  V30 1 1 1 2
M  V30 2 2 2 3
M  V30 3 1 2 4
M  V30 4 1 3 5
M  V30 5 1 3 6
M  V30 6 2 4 7
M  V30 7 2 6 8
M  V30 8 1 7 9
M  V30 9 1 8 10
M  V30 10 2 9 11
M  V30 11 1 7 8
M  V30 12 1 10 11
M  V30 END BOND
M  V30 END CTAB
M  END
>  <Structure No>
27

>  <Catalog ID>
Z1251354024

>  <MW (desalted)>
188.014

>  <ClogP>
2.714

>  <HBD>
1

>  <TPSA>
41.570

>  <RotBonds>
0

>  <Target>
Serine/threonine-protein kinase Chk2

>  <fromRegid>
CHEMBL1996923

>  <Similarity>
1.0

$$$$
Compound 28
Actelion Java MolfileCreator 2.0

  0  0  0  0  0  0              0 V3000
M  V30 BEGIN CTAB
M  V30 COUNTS 11 11 0 0 0
M  V30 BEGIN ATOM
M  V30 1 Cl 0.0 0.0 0.0 0
M  V30 2 C -1.3045 0.7521 0.0 0
M  V30 3 C -2.609 0.0235 0.0 0
M  V30 4 C -1.3162 2.2564 0.0 0
M  V30 5 C -3.9135 0.7756 0.0 0
M  V30 6 C -2.6208 3.0086 0.0 0
M  V30 7 C -5.2181 0.047 0.0 0
M  V30 8 C -3.9253 2.2799 0.0 0
M  V30 9 C -2.6325 4.5129 0.0 0
M  V30 10 O -5.2298 -1.4338 0.0 0
M  V30 11 N -6.5226 0.7991 0.0 0
M  V30 END ATOM
M  V30 BEGIN BOND
M  V30 1 1 1 2
M  V30 2 2 2 3
M  V30 3 1 2 4
M  V30 4 1 3 5
M  V30 5 2 4 6
M  V30 6 1 5 7
M  V30 7 2 5 8
M  V30 8 1 6 9
M  V30 9 2 7 10
M  V30 10 1 7 11
M  V30 11 1 6 8
M  V30 END BOND
M  V30 END CTAB
M  END
>  <Structure No>
28

>  <Catalog ID>
Z1255368207

>  <MW (desalted)>
169.608

>  <ClogP>
2.035

>  <HBD>
1

>  <TPSA>
43.090

>  <RotBonds>
1

>  <Target>
Poly [ADP-ribose] polymerase-1

>  <fromRegid>
CHEMBL419245

>  <Similarity>
0.9

$$$$
Compound 29
Actelion Java MolfileCreator 2.0

  0  0  0  0  0  0              0 V3000
M  V30 BEGIN CTAB
M  V30 COUNTS 11 12 0 0 0
M  V30 BEGIN ATOM
M  V30 1 S 0.0 0.0 0.0 0
M  V30 2 C 1.4226 -0.4505 0.0 0
M  V30 3 C -0.901 -1.2092 0.0 0
M  V30 4 C 2.7149 0.3082 0.0 0
M  V30 5 C 1.4108 -1.9443 0.0 0
M  V30 6 C -0.0237 -2.4185 0.0 0
M  V30 7 O 2.703 1.8257 0.0 0
M  V30 8 N 4.0071 -0.4268 0.0 0
M  V30 9 N 2.703 -2.6793 0.0 0
M  V30 10 C 1.3871 2.5845 0.0 0
M  V30 11 C 3.9953 -1.9206 0.0 0
M  V30 END ATOM
M  V30 BEGIN BOND
M  V30 1 1 1 2
M  V30 2 1 1 3
M  V30 3 2 2 4
M  V30 4 1 2 5
M  V30 5 2 3 6
M  V30 6 1 4 7
M  V30 7 1 4 8
M  V30 8 2 5 9
M  V30 9 1 7 10
M  V30 10 2 8 11
M  V30 11 1 5 6
M  V30 12 1 9 11
M  V30 END BOND
M  V30 END CTAB
M  END
>  <Structure No>
29

>  <Catalog ID>
Z196125830

>  <MW (desalted)>
166.200

>  <ClogP>
2.035

>  <HBD>
0

>  <TPSA>
35.010

>  <RotBonds>
1

>  <Target>
Poly [ADP-ribose] polymerase-1

>  <fromRegid>
CHEMBL1891423

>  <Similarity>
0.86

$$$$
Compound 30
Actelion Java MolfileCreator 2.0

  0  0  0  0  0  0              0 V3000
M  V30 BEGIN CTAB
M  V30 COUNTS 11 12 0 0 0
M  V30 BEGIN ATOM
M  V30 1 O 0.0 0.0 0.0 0
M  V30 2 C -0.0118 -1.49 0.0 0
M  V30 3 C -1.3245 -2.2232 0.0 0
M  V30 4 C 1.2772 -2.2232 0.0 0
M  V30 5 C -1.3363 -3.7133 0.0 0
M  V30 6 C -2.7672 -1.7502 0.0 0
M  V30 7 C 1.2653 -3.7133 0.0 0
M  V30 8 N -2.7791 -4.1627 0.0 0
M  V30 9 C -0.0473 -4.4584 0.0 0
M  V30 10 N -3.666 -2.9565 0.0 0
M  V30 11 C -5.1798 -2.9446 0.0 0
M  V30 END ATOM
M  V30 BEGIN BOND
M  V30 1 2 1 2
M  V30 2 1 2 3
M  V30 3 1 2 4
M  V30 4 1 3 5
M  V30 5 2 3 6
M  V30 6 1 4 7
M  V30 7 2 5 8
M  V30 8 1 5 9
M  V30 9 1 6 10
M  V30 10 1 10 11
M  V30 11 1 7 9
M  V30 12 1 8 10
M  V30 END BOND
M  V30 END CTAB
M  END
>  <Structure No>
30

>  <Catalog ID>
Z1255491588

>  <MW (desalted)>
150.178

>  <ClogP>
0.298

>  <HBD>
0

>  <TPSA>
34.890

>  <RotBonds>
0

>  <Target>
Serine/threonine-protein kinase Chk2

>  <fromRegid>
CHEMBL1981107

>  <Similarity>
0.91

$$$$
Compound 31
Actelion Java MolfileCreator 2.0

  0  0  0  0  0  0              0 V3000
M  V30 BEGIN CTAB
M  V30 COUNTS 11 11 0 0 0
M  V30 BEGIN ATOM
M  V30 1 O 0.0 0.0 0.0 0
M  V30 2 C -0.0118 1.5133 0.0 0
M  V30 3 N -1.3242 2.27 0.0 0
M  V30 4 C 1.2769 2.27 0.0 0
M  V30 5 C 2.5656 1.537 0.0 0
M  V30 6 C 1.265 3.7834 0.0 0
M  V30 7 C 3.8544 2.2937 0.0 0
M  V30 8 C 2.5538 4.5401 0.0 0
M  V30 9 N 5.1431 1.5606 0.0 0
M  V30 10 C 3.8425 3.8071 0.0 0
M  V30 11 C 2.542 6.0535 0.0 0
M  V30 END ATOM
M  V30 BEGIN BOND
M  V30 1 2 1 2
M  V30 2 1 2 3
M  V30 3 1 2 4
M  V30 4 2 4 5
M  V30 5 1 4 6
M  V30 6 1 5 7
M  V30 7 2 6 8
M  V30 8 1 7 9
M  V30 9 2 7 10
M  V30 10 1 8 11
M  V30 11 1 8 10
M  V30 END BOND
M  V30 END CTAB
M  END
>  <Structure No>
31

>  <Catalog ID>
Z1255434530

>  <MW (desalted)>
150.178

>  <ClogP>
0.247

>  <HBD>
2

>  <TPSA>
69.110

>  <RotBonds>
1

>  <Target>
Poly [ADP-ribose] polymerase-1

>  <fromRegid>
CHEMBL81977

>  <Similarity>
0.9

$$$$
Compound 32
Actelion Java MolfileCreator 2.0

  0  0  0  0  0  0              0 V3000
M  V30 BEGIN CTAB
M  V30 COUNTS 11 12 0 0 0
M  V30 BEGIN ATOM
M  V30 1 Br 0.0 0.0 0.0 0
M  V30 2 C -0.0118 -1.4925 0.0 0
M  V30 3 C -1.3266 -2.2269 0.0 0
M  V30 4 C 1.2793 -2.2269 0.0 0
M  V30 5 C -1.3385 -3.7194 0.0 0
M  V30 6 C -2.7718 -1.7531 0.0 0
M  V30 7 C 1.2674 -3.7194 0.0 0
M  V30 8 C -2.7836 -4.1696 0.0 0
M  V30 9 C -0.0473 -4.4539 0.0 0
M  V30 10 N -3.6721 -2.9613 0.0 0
M  V30 11 O -3.2575 -5.591 0.0 0
M  V30 END ATOM
M  V30 BEGIN BOND
M  V30 1 1 1 2
M  V30 2 2 2 3
M  V30 3 1 2 4
M  V30 4 1 3 5
M  V30 5 1 3 6
M  V30 6 2 4 7
M  V30 7 1 5 8
M  V30 8 2 5 9
M  V30 9 1 6 10
M  V30 10 2 8 11
M  V30 11 1 7 9
M  V30 12 1 8 10
M  V30 END BOND
M  V30 END CTAB
M  END
>  <Structure No>
32

>  <Catalog ID>
Z1258930120

>  <MW (desalted)>
212.043

>  <ClogP>
1.902

>  <HBD>
1

>  <TPSA>
29.100

>  <RotBonds>
0

>  <Target>
Serine/threonine-protein kinase Chk1

>  <fromRegid>
CHEMBL1984500

>  <Similarity>
1.0

$$$$
Compound 33
Actelion Java MolfileCreator 2.0

  0  0  0  0  0  0              0 V3000
M  V30 BEGIN CTAB
M  V30 COUNTS 11 12 0 0 0
M  V30 BEGIN ATOM
M  V30 1 Br 0.0 0.0 0.0 0
M  V30 2 C -1.3091 -0.7312 0.0 0
M  V30 3 C -2.6183 0.0235 0.0 0
M  V30 4 C -1.3209 -2.2173 0.0 0
M  V30 5 C -3.9275 -0.7076 0.0 0
M  V30 6 C -2.6301 -2.9485 0.0 0
M  V30 7 C -3.9393 -2.1937 0.0 0
M  V30 8 C -5.3664 -0.2358 0.0 0
M  V30 9 C -5.3782 -2.6419 0.0 0
M  V30 10 N -6.2627 -1.4389 0.0 0
M  V30 11 O -5.8499 -4.0572 0.0 0
M  V30 END ATOM
M  V30 BEGIN BOND
M  V30 1 1 1 2
M  V30 2 2 2 3
M  V30 3 1 2 4
M  V30 4 1 3 5
M  V30 5 2 4 6
M  V30 6 2 5 7
M  V30 7 1 5 8
M  V30 8 1 7 9
M  V30 9 1 8 10
M  V30 10 2 9 11
M  V30 11 1 6 7
M  V30 12 1 9 10
M  V30 END BOND
M  V30 END CTAB
M  END
>  <Structure No>
33

>  <Catalog ID>
Z1269136562

>  <MW (desalted)>
212.043

>  <ClogP>
1.902

>  <HBD>
1

>  <TPSA>
29.100

>  <RotBonds>
0

>  <Target>
Serine/threonine-protein kinase Chk1

>  <fromRegid>
CHEMBL1984500

>  <Similarity>
0.89

$$$$
Compound 34
Actelion Java MolfileCreator 2.0

  0  0  0  0  0  0              0 V3000
M  V30 BEGIN CTAB
M  V30 COUNTS 11 12 0 0 0
M  V30 BEGIN ATOM
M  V30 1 Br 0.0 0.0 0.0 0
M  V30 2 C -1.3075 -0.7303 0.0 0
M  V30 3 C -2.615 0.0235 0.0 0
M  V30 4 C -1.3193 -2.2145 0.0 0
M  V30 5 C -3.9226 -0.7067 0.0 0
M  V30 6 C -2.6268 -2.9449 0.0 0
M  V30 7 C -5.3597 -0.2355 0.0 0
M  V30 8 C -3.9344 -2.191 0.0 0
M  V30 9 O -5.8309 1.2015 0.0 0
M  V30 10 N -6.2549 -1.4371 0.0 0
M  V30 11 C -5.3715 -2.6386 0.0 0
M  V30 END ATOM
M  V30 BEGIN BOND
M  V30 1 1 1 2
M  V30 2 2 2 3
M  V30 3 1 2 4
M  V30 4 1 3 5
M  V30 5 2 4 6
M  V30 6 1 5 7
M  V30 7 2 5 8
M  V30 8 2 7 9
M  V30 9 1 7 10
M  V30 10 1 8 11
M  V30 11 1 6 8
M  V30 12 1 10 11
M  V30 END BOND
M  V30 END CTAB
M  END
>  <Structure No>
34

>  <Catalog ID>
Z1269144955

>  <MW (desalted)>
212.043

>  <ClogP>
1.902

>  <HBD>
1

>  <TPSA>
29.100

>  <RotBonds>
0

>  <Target>
Serine/threonine-protein kinase Chk1

>  <fromRegid>
CHEMBL1984500

>  <Similarity>
0.9

$$$$
Compound 35
Actelion Java MolfileCreator 2.0

  0  0  0  0  0  0              0 V3000
M  V30 BEGIN CTAB
M  V30 COUNTS 11 12 0 0 0
M  V30 BEGIN ATOM
M  V30 1 Br 0.0 0.0 0.0 0
M  V30 2 C -1.3014 0.762 0.0 0
M  V30 3 C -1.3131 2.2628 0.0 0
M  V30 4 C -2.6028 0.0234 0.0 0
M  V30 5 N -2.6145 3.0249 0.0 0
M  V30 6 C -3.9042 0.7855 0.0 0
M  V30 7 C -3.9159 2.2862 0.0 0
M  V30 8 C -5.3346 0.34 0.0 0
M  V30 9 N -5.3463 2.7552 0.0 0
M  V30 10 C -6.2257 1.5593 0.0 0
M  V30 11 C -5.8036 -1.0669 0.0 0
M  V30 END ATOM
M  V30 BEGIN BOND
M  V30 1 1 1 2
M  V30 2 2 2 3
M  V30 3 1 2 4
M  V30 4 1 3 5
M  V30 5 2 4 6
M  V30 6 2 5 7
M  V30 7 1 6 8
M  V30 8 1 7 9
M  V30 9 2 8 10
M  V30 10 1 8 11
M  V30 11 1 6 7
M  V30 12 1 9 10
M  V30 END BOND
M  V30 END CTAB
M  END
>  <Structure No>
35

>  <Catalog ID>
Z1269219081

>  <MW (desalted)>
211.059

>  <ClogP>
2.621

>  <HBD>
1

>  <TPSA>
28.680

>  <RotBonds>
0

>  <Target>
Serine/threonine-protein kinase Chk2

>  <fromRegid>
CHEMBL1992634

>  <Similarity>
0.85

$$$$
Compound 36
Actelion Java MolfileCreator 2.0

  0  0  0  0  0  0              0 V3000
M  V30 BEGIN CTAB
M  V30 COUNTS 11 12 0 0 0
M  V30 BEGIN ATOM
M  V30 1 Br 0.0 0.0 0.0 0
M  V30 2 C -0.0118 -1.4906 0.0 0
M  V30 3 C -1.325 -2.2241 0.0 0
M  V30 4 C 1.2777 -2.2241 0.0 0
M  V30 5 C -2.7683 -1.7509 0.0 0
M  V30 6 C -1.3368 -3.7148 0.0 0
M  V30 7 C 1.2658 -3.7148 0.0 0
M  V30 8 O -3.2416 -0.3075 0.0 0
M  V30 9 N -3.6675 -2.9576 0.0 0
M  V30 10 C -0.0473 -4.4483 0.0 0
M  V30 11 C -2.7802 -4.1644 0.0 0
M  V30 END ATOM
M  V30 BEGIN BOND
M  V30 1 1 1 2
M  V30 2 2 2 3
M  V30 3 1 2 4
M  V30 4 1 3 5
M  V30 5 1 3 6
M  V30 6 2 4 7
M  V30 7 2 5 8
M  V30 8 1 5 9
M  V30 9 2 6 10
M  V30 10 1 6 11
M  V30 11 1 7 10
M  V30 12 1 9 11
M  V30 END BOND
M  V30 END CTAB
M  END
>  <Structure No>
36

>  <Catalog ID>
Z1269173290

>  <MW (desalted)>
212.043

>  <ClogP>
1.902

>  <HBD>
1

>  <TPSA>
29.100

>  <RotBonds>
0

>  <Target>
Serine/threonine-protein kinase Chk1

>  <fromRegid>
CHEMBL1984500

>  <Similarity>
0.96

$$$$
Compound 37
Actelion Java MolfileCreator 2.0

  0  0  0  0  0  0              0 V3000
M  V30 BEGIN CTAB
M  V30 COUNTS 12 13 0 0 0
M  V30 BEGIN ATOM
M  V30 1 Cl 0.0 0.0 0.0 0
M  V30 2 C 1.2896 0.769 0.0 0
M  V30 3 C 2.5792 0.0236 0.0 0
M  V30 4 C 1.2777 2.2834 0.0 0
M  V30 5 C 3.8688 0.7927 0.0 0
M  V30 6 C 2.5674 3.0525 0.0 0
M  V30 7 C 5.1585 0.0473 0.0 0
M  V30 8 C 3.857 2.3071 0.0 0
M  V30 9 O 5.1466 -1.4434 0.0 0
M  V30 10 N 6.4481 0.8163 0.0 0
M  V30 11 N 5.1466 3.0761 0.0 0
M  V30 12 C 6.4363 2.3307 0.0 0
M  V30 END ATOM
M  V30 BEGIN BOND
M  V30 1 1 1 2
M  V30 2 2 2 3
M  V30 3 1 2 4
M  V30 4 1 3 5
M  V30 5 2 4 6
M  V30 6 1 5 7
M  V30 7 2 5 8
M  V30 8 2 7 9
M  V30 9 1 7 10
M  V30 10 1 8 11
M  V30 11 1 10 12
M  V30 12 1 6 8
M  V30 13 2 11 12
M  V30 END BOND
M  V30 END CTAB
M  END
>  <Structure No>
37

>  <Catalog ID>
Z57980339

>  <MW (desalted)>
180.591

>  <ClogP>
1.076

>  <HBD>
1

>  <TPSA>
41.460

>  <RotBonds>
0

>  <Target>
Poly [ADP-ribose] polymerase-1

>  <fromRegid>
CHEMBL266540

>  <Similarity>
0.87

$$$$
Compound 38
Actelion Java MolfileCreator 2.0

  0  0  0  0  0  0              0 V3000
M  V30 BEGIN CTAB
M  V30 COUNTS 12 13 0 0 0
M  V30 BEGIN ATOM
M  V30 1 S 0.0 0.0 0.0 0
M  V30 2 O -1.3142 0.7696 0.0 0
M  V30 3 O 0.6038 1.3853 0.0 0
M  V30 4 N -0.8998 -1.2077 0.0 0
M  V30 5 C 1.4208 -0.4499 0.0 0
M  V30 6 C -0.0236 -2.4154 0.0 0
M  V30 7 C 1.409 -1.9418 0.0 0
M  V30 8 C 2.7114 0.3196 0.0 0
M  V30 9 O -0.4972 -3.8362 0.0 0
M  V30 10 C 2.6996 -2.6877 0.0 0
M  V30 11 C 4.002 -0.4262 0.0 0
M  V30 12 C 3.9902 -1.9181 0.0 0
M  V30 END ATOM
M  V30 BEGIN BOND
M  V30 1 2 1 2
M  V30 2 2 1 3
M  V30 3 1 1 4
M  V30 4 1 1 5
M  V30 5 1 4 6
M  V30 6 2 5 7
M  V30 7 1 5 8
M  V30 8 2 6 9
M  V30 9 1 7 10
M  V30 10 2 8 11
M  V30 11 2 10 12
M  V30 12 1 6 7
M  V30 13 1 11 12
M  V30 END BOND
M  V30 END CTAB
M  END
>  <Structure No>
38

>  <Catalog ID>
Z256708526

>  <MW (desalted)>
183.185

>  <ClogP>
0.718

>  <HBD>
1

>  <TPSA>
63.240

>  <RotBonds>
0

>  <Target>
Serine/threonine-protein kinase Chk1

>  <fromRegid>
CHEMBL1967612

>  <Similarity>
0.9

$$$$
Compound 39
Actelion Java MolfileCreator 2.0

  0  0  0  0  0  0              0 V3000
M  V30 BEGIN CTAB
M  V30 COUNTS 12 13 0 0 0
M  V30 BEGIN ATOM
M  V30 1 O 0.0 0.0 0.0 0
M  V30 2 C -0.0117 1.506 0.0 0
M  V30 3 N -1.3177 2.2708 0.0 0
M  V30 4 C 1.2707 2.2708 0.0 0
M  V30 5 C -1.3295 3.7768 0.0 0
M  V30 6 C 1.2589 3.7768 0.0 0
M  V30 7 C 2.5531 1.5295 0.0 0
M  V30 8 N -0.047 4.5416 0.0 0
M  V30 9 C -2.6355 4.5416 0.0 0
M  V30 10 C 2.5414 4.5416 0.0 0
M  V30 11 C 3.8356 2.2943 0.0 0
M  V30 12 C 3.8238 3.8003 0.0 0
M  V30 END ATOM
M  V30 BEGIN BOND
M  V30 1 2 1 2
M  V30 2 1 2 3
M  V30 3 1 2 4
M  V30 4 1 3 5
M  V30 5 2 4 6
M  V30 6 1 4 7
M  V30 7 2 5 8
M  V30 8 1 5 9
M  V30 9 1 6 10
M  V30 10 2 7 11
M  V30 11 2 10 12
M  V30 12 1 6 8
M  V30 13 1 11 12
M  V30 END BOND
M  V30 END CTAB
M  END
>  <Structure No>
39

>  <Catalog ID>
Z56895688

>  <MW (desalted)>
160.173

>  <ClogP>
0.804

>  <HBD>
1

>  <TPSA>
41.460

>  <RotBonds>
0

>  <Target>
Poly [ADP-ribose] polymerase-1

>  <fromRegid>
CHEMBL395092

>  <Similarity>
1.0

$$$$
Compound 40
Actelion Java MolfileCreator 2.0

  0  0  0  0  0  0              0 V3000
M  V30 BEGIN CTAB
M  V30 COUNTS 12 13 0 0 0
M  V30 BEGIN ATOM
M  V30 1 Cl 0.0 0.0 0.0 0
M  V30 2 C 1.2896 0.769 0.0 0
M  V30 3 C 2.5792 0.0236 0.0 0
M  V30 4 C 1.2778 2.2834 0.0 0
M  V30 5 C 3.8689 0.7927 0.0 0
M  V30 6 C 2.5674 3.0407 0.0 0
M  V30 7 N 5.1585 0.0473 0.0 0
M  V30 8 C 3.857 2.3071 0.0 0
M  V30 9 C 6.4481 0.8163 0.0 0
M  V30 10 C 5.1467 3.0643 0.0 0
M  V30 11 N 6.4363 2.3308 0.0 0
M  V30 12 O 5.1348 4.5788 0.0 0
M  V30 END ATOM
M  V30 BEGIN BOND
M  V30 1 1 1 2
M  V30 2 2 2 3
M  V30 3 1 2 4
M  V30 4 1 3 5
M  V30 5 2 4 6
M  V30 6 1 5 7
M  V30 7 2 5 8
M  V30 8 2 7 9
M  V30 9 1 8 10
M  V30 10 1 9 11
M  V30 11 2 10 12
M  V30 12 1 6 8
M  V30 13 1 10 11
M  V30 END BOND
M  V30 END CTAB
M  END
>  <Structure No>
40

>  <Catalog ID>
Z57683681

>  <MW (desalted)>
180.591

>  <ClogP>
1.076

>  <HBD>
1

>  <TPSA>
41.460

>  <RotBonds>
0

>  <Target>
Poly [ADP-ribose] polymerase-1

>  <fromRegid>
CHEMBL266540

>  <Similarity>
0.87

$$$$
Compound 41
Actelion Java MolfileCreator 2.0

  0  0  0  0  0  0              0 V3000
M  V30 BEGIN CTAB
M  V30 COUNTS 12 13 0 0 0
M  V30 BEGIN ATOM
M  V30 1 Br 0.0 0.0 0.0 0
M  V30 2 C 1.2896 0.769 0.0 0
M  V30 3 C 2.5792 0.0236 0.0 0
M  V30 4 C 1.2778 2.2834 0.0 0
M  V30 5 C 3.8689 0.7927 0.0 0
M  V30 6 C 2.5674 3.0407 0.0 0
M  V30 7 N 5.1585 0.0473 0.0 0
M  V30 8 C 3.857 2.3071 0.0 0
M  V30 9 C 6.4481 0.8163 0.0 0
M  V30 10 C 5.1467 3.0643 0.0 0
M  V30 11 N 6.4363 2.3308 0.0 0
M  V30 12 O 5.1348 4.5788 0.0 0
M  V30 END ATOM
M  V30 BEGIN BOND
M  V30 1 1 1 2
M  V30 2 2 2 3
M  V30 3 1 2 4
M  V30 4 1 3 5
M  V30 5 2 4 6
M  V30 6 1 5 7
M  V30 7 2 5 8
M  V30 8 2 7 9
M  V30 9 1 8 10
M  V30 10 1 9 11
M  V30 11 2 10 12
M  V30 12 1 6 8
M  V30 13 1 10 11
M  V30 END BOND
M  V30 END CTAB
M  END
>  <Structure No>
41

>  <Catalog ID>
Z152448286

>  <MW (desalted)>
225.042

>  <ClogP>
1.226

>  <HBD>
1

>  <TPSA>
41.460

>  <RotBonds>
0

>  <Target>
Poly [ADP-ribose] polymerase-1

>  <fromRegid>
CHEMBL266540

>  <Similarity>
0.87

$$$$
Compound 42
Actelion Java MolfileCreator 2.0

  0  0  0  0  0  0              0 V3000
M  V30 BEGIN CTAB
M  V30 COUNTS 12 13 0 0 0
M  V30 BEGIN ATOM
M  V30 1 F 0.0 0.0 0.0 0
M  V30 2 C 1.2896 0.769 0.0 0
M  V30 3 C 2.5792 0.0236 0.0 0
M  V30 4 C 1.2778 2.2834 0.0 0
M  V30 5 C 3.8689 0.7927 0.0 0
M  V30 6 C 2.5674 3.0407 0.0 0
M  V30 7 N 5.1585 0.0473 0.0 0
M  V30 8 C 3.857 2.3071 0.0 0
M  V30 9 C 6.4481 0.8163 0.0 0
M  V30 10 C 5.1467 3.0643 0.0 0
M  V30 11 N 6.4363 2.3308 0.0 0
M  V30 12 O 5.1348 4.5788 0.0 0
M  V30 END ATOM
M  V30 BEGIN BOND
M  V30 1 1 1 2
M  V30 2 2 2 3
M  V30 3 1 2 4
M  V30 4 1 3 5
M  V30 5 2 4 6
M  V30 6 1 5 7
M  V30 7 2 5 8
M  V30 8 2 7 9
M  V30 9 1 8 10
M  V30 10 1 9 11
M  V30 11 2 10 12
M  V30 12 1 6 8
M  V30 13 1 10 11
M  V30 END BOND
M  V30 END CTAB
M  END
>  <Structure No>
42

>  <Catalog ID>
Z133595436

>  <MW (desalted)>
164.137

>  <ClogP>
0.506

>  <HBD>
1

>  <TPSA>
41.460

>  <RotBonds>
0

>  <Target>
Poly [ADP-ribose] polymerase-1

>  <fromRegid>
CHEMBL266540

>  <Similarity>
0.87

$$$$
Compound 43
Actelion Java MolfileCreator 2.0

  0  0  0  0  0  0              0 V3000
M  V30 BEGIN CTAB
M  V30 COUNTS 12 13 0 0 0
M  V30 BEGIN ATOM
M  V30 1 O 0.0 0.0 0.0 0
M  V30 2 C 1.2896 0.769 0.0 0
M  V30 3 N 1.2778 2.2834 0.0 0
M  V30 4 N 2.5792 0.0236 0.0 0
M  V30 5 C 2.5674 3.0407 0.0 0
M  V30 6 C 3.8689 0.7927 0.0 0
M  V30 7 O 2.5556 4.5551 0.0 0
M  V30 8 C 3.857 2.3071 0.0 0
M  V30 9 C 5.1585 0.0473 0.0 0
M  V30 10 C 5.1467 3.0643 0.0 0
M  V30 11 C 6.4481 0.8163 0.0 0
M  V30 12 C 6.4363 2.3308 0.0 0
M  V30 END ATOM
M  V30 BEGIN BOND
M  V30 1 2 1 2
M  V30 2 1 2 3
M  V30 3 1 2 4
M  V30 4 1 3 5
M  V30 5 1 4 6
M  V30 6 2 5 7
M  V30 7 1 5 8
M  V30 8 1 6 9
M  V30 9 1 8 10
M  V30 10 2 9 11
M  V30 11 2 10 12
M  V30 12 2 6 8
M  V30 13 1 11 12
M  V30 END BOND
M  V30 END CTAB
M  END
>  <Structure No>
43

>  <Catalog ID>
Z57177786

>  <MW (desalted)>
162.145

>  <ClogP>
0.538

>  <HBD>
2

>  <TPSA>
58.200

>  <RotBonds>
0

>  <Target>
Poly [ADP-ribose] polymerase-1

>  <fromRegid>
CHEMBL421646

>  <Similarity>
1.0

$$$$
Compound 44
Actelion Java MolfileCreator 2.0

  0  0  0  0  0  0              0 V3000
M  V30 BEGIN CTAB
M  V30 COUNTS 12 13 0 0 0
M  V30 BEGIN ATOM
M  V30 1 O 0.0 0.0 0.0 0
M  V30 2 C -0.0118 -1.4975 0.0 0
M  V30 3 N -1.3311 -2.2344 0.0 0
M  V30 4 C 1.2836 -2.2344 0.0 0
M  V30 5 N -1.343 -3.7319 0.0 0
M  V30 6 C 1.2717 -3.7319 0.0 0
M  V30 7 C 2.579 -1.4737 0.0 0
M  V30 8 C -0.0475 -4.4807 0.0 0
M  V30 9 C 2.5672 -4.4807 0.0 0
M  V30 10 C 3.8745 -2.2106 0.0 0
M  V30 11 C -0.0594 -5.9782 0.0 0
M  V30 12 C 3.8626 -3.7081 0.0 0
M  V30 END ATOM
M  V30 BEGIN BOND
M  V30 1 2 1 2
M  V30 2 1 2 3
M  V30 3 1 2 4
M  V30 4 1 3 5
M  V30 5 2 4 6
M  V30 6 1 4 7
M  V30 7 2 5 8
M  V30 8 1 6 9
M  V30 9 2 7 10
M  V30 10 1 8 11
M  V30 11 2 9 12
M  V30 12 1 6 8
M  V30 13 1 10 12
M  V30 END BOND
M  V30 END CTAB
M  END
>  <Structure No>
44

>  <Catalog ID>
Z56877312

>  <MW (desalted)>
160.173

>  <ClogP>
0.654

>  <HBD>
1

>  <TPSA>
41.460

>  <RotBonds>
0

>  <Target>
Poly [ADP-ribose] polymerase-1

>  <fromRegid>
CHEMBL66761

>  <Similarity>
0.86

$$$$
Compound 45
Actelion Java MolfileCreator 2.0

  0  0  0  0  0  0              0 V3000
M  V30 BEGIN CTAB
M  V30 COUNTS 12 13 0 0 0
M  V30 BEGIN ATOM
M  V30 1 Br 0.0 0.0 0.0 0
M  V30 2 C 1.2896 0.769 0.0 0
M  V30 3 C 2.5792 0.0236 0.0 0
M  V30 4 C 1.2777 2.2834 0.0 0
M  V30 5 C 3.8688 0.7927 0.0 0
M  V30 6 C 2.5674 3.0525 0.0 0
M  V30 7 C 5.1585 0.0473 0.0 0
M  V30 8 C 3.857 2.3071 0.0 0
M  V30 9 O 5.1466 -1.4434 0.0 0
M  V30 10 N 6.4481 0.8163 0.0 0
M  V30 11 N 5.1466 3.0761 0.0 0
M  V30 12 C 6.4363 2.3307 0.0 0
M  V30 END ATOM
M  V30 BEGIN BOND
M  V30 1 1 1 2
M  V30 2 2 2 3
M  V30 3 1 2 4
M  V30 4 1 3 5
M  V30 5 2 4 6
M  V30 6 1 5 7
M  V30 7 2 5 8
M  V30 8 2 7 9
M  V30 9 1 7 10
M  V30 10 1 8 11
M  V30 11 1 10 12
M  V30 12 1 6 8
M  V30 13 2 11 12
M  V30 END BOND
M  V30 END CTAB
M  END
>  <Structure No>
45

>  <Catalog ID>
Z56893149

>  <MW (desalted)>
225.042

>  <ClogP>
1.226

>  <HBD>
1

>  <TPSA>
41.460

>  <RotBonds>
0

>  <Target>
Serine/threonine-protein kinase Chk1

>  <fromRegid>
CHEMBL562488

>  <Similarity>
1.0

$$$$
Compound 46
Actelion Java MolfileCreator 2.0

  0  0  0  0  0  0              0 V3000
M  V30 BEGIN CTAB
M  V30 COUNTS 12 13 0 0 0
M  V30 BEGIN ATOM
M  V30 1 O 0.0 0.0 0.0 0
M  V30 2 C -0.0117 1.5006 0.0 0
M  V30 3 N 1.2661 2.2627 0.0 0
M  V30 4 C -1.313 2.2627 0.0 0
M  V30 5 C 1.2544 3.7634 0.0 0
M  V30 6 C -1.3248 3.7634 0.0 0
M  V30 7 C -2.6144 1.5241 0.0 0
M  V30 8 N -0.0468 4.5254 0.0 0
M  V30 9 C -2.6261 4.5254 0.0 0
M  V30 10 C -3.9158 2.2861 0.0 0
M  V30 11 C -3.9275 3.7868 0.0 0
M  V30 12 N -5.2171 1.5475 0.0 0
M  V30 END ATOM
M  V30 BEGIN BOND
M  V30 1 2 1 2
M  V30 2 1 2 3
M  V30 3 1 2 4
M  V30 4 1 3 5
M  V30 5 2 4 6
M  V30 6 1 4 7
M  V30 7 2 5 8
M  V30 8 1 6 9
M  V30 9 2 7 10
M  V30 10 2 9 11
M  V30 11 1 10 12
M  V30 12 1 6 8
M  V30 13 1 10 11
M  V30 END BOND
M  V30 END CTAB
M  END
>  <Structure No>
46

>  <Catalog ID>
Z203240798

>  <MW (desalted)>
161.161

>  <ClogP>
-0.116

>  <HBD>
2

>  <TPSA>
67.480

>  <RotBonds>
0

>  <Target>
Poly [ADP-ribose] polymerase-1

>  <fromRegid>
CHEMBL266540

>  <Similarity>
0.92

$$$$
Compound 47
Actelion Java MolfileCreator 2.0

  0  0  0  0  0  0              0 V3000
M  V30 BEGIN CTAB
M  V30 COUNTS 12 13 0 0 0
M  V30 BEGIN ATOM
M  V30 1 Br 0.0 0.0 0.0 0
M  V30 2 C -0.0117 1.5084 0.0 0
M  V30 3 C 1.2727 2.2744 0.0 0
M  V30 4 C -1.3198 2.2744 0.0 0
M  V30 5 N 2.5572 1.532 0.0 0
M  V30 6 C 1.2609 3.7828 0.0 0
M  V30 7 C -1.3316 3.7828 0.0 0
M  V30 8 C 3.8417 2.298 0.0 0
M  V30 9 C 2.5454 4.537 0.0 0
M  V30 10 C -0.0471 4.537 0.0 0
M  V30 11 N 3.83 3.8064 0.0 0
M  V30 12 O 2.5336 6.0455 0.0 0
M  V30 END ATOM
M  V30 BEGIN BOND
M  V30 1 1 1 2
M  V30 2 2 2 3
M  V30 3 1 2 4
M  V30 4 1 3 5
M  V30 5 1 3 6
M  V30 6 2 4 7
M  V30 7 2 5 8
M  V30 8 1 6 9
M  V30 9 2 6 10
M  V30 10 1 8 11
M  V30 11 2 9 12
M  V30 12 1 7 10
M  V30 13 1 9 11
M  V30 END BOND
M  V30 END CTAB
M  END
>  <Structure No>
47

>  <Catalog ID>
Z440678062

>  <MW (desalted)>
225.042

>  <ClogP>
1.226

>  <HBD>
1

>  <TPSA>
41.460

>  <RotBonds>
0

>  <Target>
Serine/threonine-protein kinase Chk1

>  <fromRegid>
CHEMBL562488

>  <Similarity>
0.92

$$$$
Compound 48
Actelion Java MolfileCreator 2.0

  0  0  0  0  0  0              0 V3000
M  V30 BEGIN CTAB
M  V30 COUNTS 12 13 0 0 0
M  V30 BEGIN ATOM
M  V30 1 F 0.0 0.0 0.0 0
M  V30 2 C -0.0117 1.5084 0.0 0
M  V30 3 C 1.2727 2.2744 0.0 0
M  V30 4 C -1.3198 2.2744 0.0 0
M  V30 5 C 2.5572 1.5319 0.0 0
M  V30 6 C 1.2609 3.7828 0.0 0
M  V30 7 C -1.3316 3.7828 0.0 0
M  V30 8 O 2.5454 0.0471 0.0 0
M  V30 9 N 3.8417 2.2979 0.0 0
M  V30 10 N 2.5454 4.5488 0.0 0
M  V30 11 C -0.0471 4.5488 0.0 0
M  V30 12 C 3.8299 3.8063 0.0 0
M  V30 END ATOM
M  V30 BEGIN BOND
M  V30 1 1 1 2
M  V30 2 2 2 3
M  V30 3 1 2 4
M  V30 4 1 3 5
M  V30 5 1 3 6
M  V30 6 2 4 7
M  V30 7 2 5 8
M  V30 8 1 5 9
M  V30 9 1 6 10
M  V30 10 2 6 11
M  V30 11 1 9 12
M  V30 12 1 7 11
M  V30 13 2 10 12
M  V30 END BOND
M  V30 END CTAB
M  END
>  <Structure No>
48

>  <Catalog ID>
Z818727146

>  <MW (desalted)>
164.137

>  <ClogP>
0.506

>  <HBD>
1

>  <TPSA>
41.460

>  <RotBonds>
0

>  <Target>
Poly [ADP-ribose] polymerase-1

>  <fromRegid>
CHEMBL1949843

>  <Similarity>
0.85

$$$$
Compound 49
Actelion Java MolfileCreator 2.0

  0  0  0  0  0  0              0 V3000
M  V30 BEGIN CTAB
M  V30 COUNTS 12 13 0 0 0
M  V30 BEGIN ATOM
M  V30 1 F 0.0 0.0 0.0 0
M  V30 2 C 1.2896 0.769 0.0 0
M  V30 3 C 2.5792 0.0236 0.0 0
M  V30 4 C 1.2777 2.2834 0.0 0
M  V30 5 C 3.8688 0.7927 0.0 0
M  V30 6 C 2.5674 3.0525 0.0 0
M  V30 7 C 5.1585 0.0473 0.0 0
M  V30 8 C 3.857 2.3071 0.0 0
M  V30 9 O 5.1466 -1.4434 0.0 0
M  V30 10 N 6.4481 0.8163 0.0 0
M  V30 11 N 5.1466 3.0761 0.0 0
M  V30 12 C 6.4363 2.3307 0.0 0
M  V30 END ATOM
M  V30 BEGIN BOND
M  V30 1 1 1 2
M  V30 2 2 2 3
M  V30 3 1 2 4
M  V30 4 1 3 5
M  V30 5 2 4 6
M  V30 6 1 5 7
M  V30 7 2 5 8
M  V30 8 2 7 9
M  V30 9 1 7 10
M  V30 10 1 8 11
M  V30 11 1 10 12
M  V30 12 1 6 8
M  V30 13 2 11 12
M  V30 END BOND
M  V30 END CTAB
M  END
>  <Structure No>
49

>  <Catalog ID>
Z728795402

>  <MW (desalted)>
164.137

>  <ClogP>
0.506

>  <HBD>
1

>  <TPSA>
41.460

>  <RotBonds>
0

>  <Target>
Poly [ADP-ribose] polymerase-1

>  <fromRegid>
CHEMBL266540

>  <Similarity>
0.88

$$$$
Compound 50
Actelion Java MolfileCreator 2.0

  0  0  0  0  0  0              0 V3000
M  V30 BEGIN CTAB
M  V30 COUNTS 12 13 0 0 0
M  V30 BEGIN ATOM
M  V30 1 N 0.0 0.0 0.0 0
M  V30 2 C -1.3078 0.754 0.0 0
M  V30 3 C -0.0117 -1.4845 0.0 0
M  V30 4 N -1.3195 2.2621 0.0 0
M  V30 5 C -2.6156 0.0235 0.0 0
M  V30 6 N -1.3195 -2.215 0.0 0
M  V30 7 C -2.6273 3.0162 0.0 0
M  V30 8 C -0.0353 3.0162 0.0 0
M  V30 9 N -4.053 0.4948 0.0 0
M  V30 10 C -2.6273 -1.4609 0.0 0
M  V30 11 C -4.9484 -0.7069 0.0 0
M  V30 12 N -4.0648 -1.9086 0.0 0
M  V30 END ATOM
M  V30 BEGIN BOND
M  V30 1 2 1 2
M  V30 2 1 1 3
M  V30 3 1 2 4
M  V30 4 1 2 5
M  V30 5 2 3 6
M  V30 6 1 4 7
M  V30 7 1 4 8
M  V30 8 1 5 9
M  V30 9 2 5 10
M  V30 10 1 9 11
M  V30 11 1 10 12
M  V30 12 1 6 10
M  V30 13 2 11 12
M  V30 END BOND
M  V30 END CTAB
M  END
>  <Structure No>
50

>  <Catalog ID>
Z372962146

>  <MW (desalted)>
163.180

>  <ClogP>
0.738

>  <HBD>
1

>  <TPSA>
57.700

>  <RotBonds>
1

>  <Target>
Serine/threonine-protein kinase Chk2

>  <fromRegid>
CHEMBL407391

>  <Similarity>
1.0

$$$$
Compound 51
Actelion Java MolfileCreator 2.0

  0  0  0  0  0  0              0 V3000
M  V30 BEGIN CTAB
M  V30 COUNTS 12 13 0 0 0
M  V30 BEGIN ATOM
M  V30 1 O 0.0 0.0 0.0 0
M  V30 2 C -0.0117 1.506 0.0 0
M  V30 3 N -1.3177 2.2708 0.0 0
M  V30 4 C 1.2707 2.2708 0.0 0
M  V30 5 C -1.3295 3.7768 0.0 0
M  V30 6 C 1.2589 3.7768 0.0 0
M  V30 7 C 2.5531 1.5295 0.0 0
M  V30 8 N -0.047 4.5416 0.0 0
M  V30 9 N -2.6355 4.5416 0.0 0
M  V30 10 C 2.5414 4.5416 0.0 0
M  V30 11 C 3.8356 2.2943 0.0 0
M  V30 12 C 3.8238 3.8003 0.0 0
M  V30 END ATOM
M  V30 BEGIN BOND
M  V30 1 2 1 2
M  V30 2 1 2 3
M  V30 3 1 2 4
M  V30 4 1 3 5
M  V30 5 2 4 6
M  V30 6 1 4 7
M  V30 7 2 5 8
M  V30 8 1 5 9
M  V30 9 1 6 10
M  V30 10 2 7 11
M  V30 11 2 10 12
M  V30 12 1 6 8
M  V30 13 1 11 12
M  V30 END BOND
M  V30 END CTAB
M  END
>  <Structure No>
51

>  <Catalog ID>
Z840267872

>  <MW (desalted)>
161.161

>  <ClogP>
0.153

>  <HBD>
2

>  <TPSA>
67.480

>  <RotBonds>
0

>  <Target>
Poly [ADP-ribose] polymerase-1

>  <fromRegid>
CHEMBL266540

>  <Similarity>
0.87

$$$$
Compound 52
Actelion Java MolfileCreator 2.0

  0  0  0  0  0  0              0 V3000
M  V30 BEGIN CTAB
M  V30 COUNTS 12 13 0 0 0
M  V30 BEGIN ATOM
M  V30 1 O 0.0 0.0 0.0 0
M  V30 2 C -0.0118 -1.4912 0.0 0
M  V30 3 N 1.2782 -2.225 0.0 0
M  V30 4 C -1.3255 -2.225 0.0 0
M  V30 5 C 1.2663 -3.7162 0.0 0
M  V30 6 C -1.3373 -3.7162 0.0 0
M  V30 7 C -2.6392 -1.4675 0.0 0
M  V30 8 N -0.0473 -4.4618 0.0 0
M  V30 9 C -2.651 -4.4618 0.0 0
M  V30 10 C -3.9529 -2.2013 0.0 0
M  V30 11 C -3.9648 -3.6925 0.0 0
M  V30 12 C -2.6629 -5.9531 0.0 0
M  V30 END ATOM
M  V30 BEGIN BOND
M  V30 1 2 1 2
M  V30 2 1 2 3
M  V30 3 1 2 4
M  V30 4 1 3 5
M  V30 5 2 4 6
M  V30 6 1 4 7
M  V30 7 2 5 8
M  V30 8 1 6 9
M  V30 9 2 7 10
M  V30 10 2 9 11
M  V30 11 1 9 12
M  V30 12 1 6 8
M  V30 13 1 10 11
M  V30 END BOND
M  V30 END CTAB
M  END
>  <Structure No>
52

>  <Catalog ID>
Z314790678

>  <MW (desalted)>
160.173

>  <ClogP>
0.804

>  <HBD>
1

>  <TPSA>
41.460

>  <RotBonds>
0

>  <Target>
Poly [ADP-ribose] polymerase-1

>  <fromRegid>
CHEMBL266540

>  <Similarity>
0.93

$$$$
Compound 53
Actelion Java MolfileCreator 2.0

  0  0  0  0  0  0              0 V3000
M  V30 BEGIN CTAB
M  V30 COUNTS 13 13 0 0 0
M  V30 BEGIN ATOM
M  V30 1 Cl 0.0 0.0 0.0 0
M  V30 2 O 9.2966 -2.5354 0.0 0
M  V30 3 C 9.2848 -1.0329 0.0 0
M  V30 4 N 10.5643 -0.2817 0.0 0
M  V30 5 C 7.9819 -0.2699 0.0 0
M  V30 6 C 10.5525 1.2207 0.0 0
M  V30 7 C 7.9701 1.2325 0.0 0
M  V30 8 C 6.6789 -1.0094 0.0 0
M  V30 9 C 9.2496 1.9837 0.0 0
M  V30 10 C 6.6672 1.9837 0.0 0
M  V30 11 C 5.376 -0.2582 0.0 0
M  V30 12 C 5.3643 1.2559 0.0 0
M  V30 13 N 4.0731 -0.986 0.0 0
M  V30 END ATOM
M  V30 BEGIN BOND
M  V30 1 2 2 3
M  V30 2 1 3 4
M  V30 3 1 3 5
M  V30 4 1 4 6
M  V30 5 2 5 7
M  V30 6 1 5 8
M  V30 7 1 6 9
M  V30 8 1 7 10
M  V30 9 2 8 11
M  V30 10 2 10 12
M  V30 11 1 11 13
M  V30 12 1 7 9
M  V30 13 1 11 12
M  V30 END BOND
M  V30 END CTAB
M  END
>  <Structure No>
53

>  <Catalog ID>
Z1269638456

>  <MW (desalted)>
162.189

>  <ClogP>
0.089

>  <HBD>
2

>  <TPSA>
55.120

>  <RotBonds>
0

>  <Target>
Poly [ADP-ribose] polymerase-1

>  <fromRegid>
CHEMBL594759

>  <Similarity>
0.93

$$$$
Compound 54
Actelion Java MolfileCreator 2.0

  0  0  0  0  0  0              0 V3000
M  V30 BEGIN CTAB
M  V30 COUNTS 12 13 0 0 0
M  V30 BEGIN ATOM
M  V30 1 O 0.0 0.0 0.0 0
M  V30 2 C -0.0118 -1.4897 0.0 0
M  V30 3 N 1.2769 -2.2228 0.0 0
M  V30 4 C -1.3242 -2.2228 0.0 0
M  V30 5 C 1.2651 -3.7125 0.0 0
M  V30 6 C -1.336 -3.7125 0.0 0
M  V30 7 C -2.6366 -1.4661 0.0 0
M  V30 8 C -0.0472 -4.4574 0.0 0
M  V30 9 C -2.6484 -4.4574 0.0 0
M  V30 10 C -3.949 -2.1991 0.0 0
M  V30 11 C -3.9608 -3.6889 0.0 0
M  V30 12 N -5.2732 -4.4338 0.0 0
M  V30 END ATOM
M  V30 BEGIN BOND
M  V30 1 2 1 2
M  V30 2 1 2 3
M  V30 3 1 2 4
M  V30 4 1 3 5
M  V30 5 2 4 6
M  V30 6 1 4 7
M  V30 7 1 5 8
M  V30 8 1 6 9
M  V30 9 2 7 10
M  V30 10 2 9 11
M  V30 11 1 11 12
M  V30 12 1 6 8
M  V30 13 1 10 11
M  V30 END BOND
M  V30 END CTAB
M  END
>  <Structure No>
54

>  <Catalog ID>
Z1198280382

>  <MW (desalted)>
162.189

>  <ClogP>
0.089

>  <HBD>
2

>  <TPSA>
55.120

>  <RotBonds>
0

>  <Target>
Poly [ADP-ribose] polymerase-1

>  <fromRegid>
CHEMBL594759

>  <Similarity>
0.92

$$$$
Compound 55
Actelion Java MolfileCreator 2.0

  0  0  0  0  0  0              0 V3000
M  V30 BEGIN CTAB
M  V30 COUNTS 12 13 0 0 0
M  V30 BEGIN ATOM
M  V30 1 Cl 0.0 0.0 0.0 0
M  V30 2 C -1.2997 0.7611 0.0 0
M  V30 3 C -2.5994 0.0234 0.0 0
M  V30 4 C -1.3114 2.2599 0.0 0
M  V30 5 C -3.8992 0.7845 0.0 0
M  V30 6 C -2.6111 3.021 0.0 0
M  V30 7 N -5.1989 0.0468 0.0 0
M  V30 8 C -3.9109 2.2833 0.0 0
M  V30 9 C -6.4987 0.8079 0.0 0
M  V30 10 C -5.2106 3.0444 0.0 0
M  V30 11 O -7.7984 0.0702 0.0 0
M  V30 12 C -6.5104 2.3067 0.0 0
M  V30 END ATOM
M  V30 BEGIN BOND
M  V30 1 1 1 2
M  V30 2 2 2 3
M  V30 3 1 2 4
M  V30 4 1 3 5
M  V30 5 2 4 6
M  V30 6 2 5 7
M  V30 7 1 5 8
M  V30 8 1 7 9
M  V30 9 2 8 10
M  V30 10 1 9 11
M  V30 11 2 9 12
M  V30 12 1 6 8
M  V30 13 1 10 12
M  V30 END BOND
M  V30 END CTAB
M  END
>  <Structure No>
55

>  <Catalog ID>
Z1198179771

>  <MW (desalted)>
179.603

>  <ClogP>
3.126

>  <HBD>
1

>  <TPSA>
33.120

>  <RotBonds>
0

>  <Target>
Poly [ADP-ribose] polymerase-1

>  <fromRegid>
CHEMBL298450

>  <Similarity>
0.86

$$$$
Compound 56
Actelion Java MolfileCreator 2.0

  0  0  0  0  0  0              0 V3000
M  V30 BEGIN CTAB
M  V30 COUNTS 12 13 0 0 0
M  V30 BEGIN ATOM
M  V30 1 F 0.0 0.0 0.0 0
M  V30 2 C -0.0117 1.5084 0.0 0
M  V30 3 C 1.2727 2.2744 0.0 0
M  V30 4 C -1.3198 2.2744 0.0 0
M  V30 5 N 2.5572 1.532 0.0 0
M  V30 6 C 1.2609 3.7828 0.0 0
M  V30 7 C -1.3316 3.7828 0.0 0
M  V30 8 C 3.8417 2.298 0.0 0
M  V30 9 C 2.5454 4.537 0.0 0
M  V30 10 C -0.0471 4.537 0.0 0
M  V30 11 N 3.83 3.8064 0.0 0
M  V30 12 O 2.5336 6.0455 0.0 0
M  V30 END ATOM
M  V30 BEGIN BOND
M  V30 1 1 1 2
M  V30 2 2 2 3
M  V30 3 1 2 4
M  V30 4 1 3 5
M  V30 5 1 3 6
M  V30 6 2 4 7
M  V30 7 2 5 8
M  V30 8 1 6 9
M  V30 9 2 6 10
M  V30 10 1 8 11
M  V30 11 2 9 12
M  V30 12 1 7 10
M  V30 13 1 9 11
M  V30 END BOND
M  V30 END CTAB
M  END
>  <Structure No>
56

>  <Catalog ID>
Z1198266474

>  <MW (desalted)>
164.137

>  <ClogP>
0.506

>  <HBD>
1

>  <TPSA>
41.460

>  <RotBonds>
0

>  <Target>
Poly [ADP-ribose] polymerase-1

>  <fromRegid>
CHEMBL1949843

>  <Similarity>
0.92

$$$$
Compound 57
Actelion Java MolfileCreator 2.0

  0  0  0  0  0  0              0 V3000
M  V30 BEGIN CTAB
M  V30 COUNTS 12 13 0 0 0
M  V30 BEGIN ATOM
M  V30 1 Cl 0.0 0.0 0.0 0
M  V30 2 C -0.0117 1.5084 0.0 0
M  V30 3 C 1.2727 2.2744 0.0 0
M  V30 4 C -1.3198 2.2744 0.0 0
M  V30 5 N 2.5572 1.532 0.0 0
M  V30 6 C 1.2609 3.7828 0.0 0
M  V30 7 C -1.3316 3.7828 0.0 0
M  V30 8 C 3.8417 2.298 0.0 0
M  V30 9 C 2.5454 4.537 0.0 0
M  V30 10 C -0.0471 4.537 0.0 0
M  V30 11 N 3.83 3.8064 0.0 0
M  V30 12 O 2.5336 6.0455 0.0 0
M  V30 END ATOM
M  V30 BEGIN BOND
M  V30 1 1 1 2
M  V30 2 2 2 3
M  V30 3 1 2 4
M  V30 4 1 3 5
M  V30 5 1 3 6
M  V30 6 2 4 7
M  V30 7 2 5 8
M  V30 8 1 6 9
M  V30 9 2 6 10
M  V30 10 1 8 11
M  V30 11 2 9 12
M  V30 12 1 7 10
M  V30 13 1 9 11
M  V30 END BOND
M  V30 END CTAB
M  END
>  <Structure No>
57

>  <Catalog ID>
Z1198266475

>  <MW (desalted)>
180.591

>  <ClogP>
1.076

>  <HBD>
1

>  <TPSA>
41.460

>  <RotBonds>
0

>  <Target>
Poly [ADP-ribose] polymerase-1

>  <fromRegid>
CHEMBL1949844

>  <Similarity>
0.91

$$$$
Compound 58
Actelion Java MolfileCreator 2.0

  0  0  0  0  0  0              0 V3000
M  V30 BEGIN CTAB
M  V30 COUNTS 12 13 0 0 0
M  V30 BEGIN ATOM
M  V30 1 O 0.0 0.0 0.0 0
M  V30 2 C -0.0118 -1.4897 0.0 0
M  V30 3 N 1.2769 -2.2228 0.0 0
M  V30 4 C -1.3242 -2.2228 0.0 0
M  V30 5 C 1.2651 -3.7125 0.0 0
M  V30 6 C -1.336 -3.7125 0.0 0
M  V30 7 C -2.6366 -1.4661 0.0 0
M  V30 8 C -0.0472 -4.4574 0.0 0
M  V30 9 C -2.6484 -4.4574 0.0 0
M  V30 10 C -3.949 -2.1991 0.0 0
M  V30 11 C -3.9608 -3.6889 0.0 0
M  V30 12 O -5.2732 -4.4338 0.0 0
M  V30 END ATOM
M  V30 BEGIN BOND
M  V30 1 2 1 2
M  V30 2 1 2 3
M  V30 3 1 2 4
M  V30 4 1 3 5
M  V30 5 2 4 6
M  V30 6 1 4 7
M  V30 7 1 5 8
M  V30 8 1 6 9
M  V30 9 2 7 10
M  V30 10 2 9 11
M  V30 11 1 11 12
M  V30 12 1 6 8
M  V30 13 1 10 11
M  V30 END BOND
M  V30 END CTAB
M  END
>  <Structure No>
58

>  <Catalog ID>
Z1198175558

>  <MW (desalted)>
163.173

>  <ClogP>
0.668

>  <HBD>
2

>  <TPSA>
49.330

>  <RotBonds>
0

>  <Target>
Poly [ADP-ribose] polymerase-1

>  <fromRegid>
CHEMBL3629676

>  <Similarity>
0.98

$$$$
Compound 59
Actelion Java MolfileCreator 2.0

  0  0  0  0  0  0              0 V3000
M  V30 BEGIN CTAB
M  V30 COUNTS 12 13 0 0 0
M  V30 BEGIN ATOM
M  V30 1 O 0.0 0.0 0.0 0
M  V30 2 C -0.0118 -1.4912 0.0 0
M  V30 3 N 1.2782 -2.225 0.0 0
M  V30 4 C -1.3255 -2.225 0.0 0
M  V30 5 C 1.2663 -3.7162 0.0 0
M  V30 6 C -1.3373 -3.7162 0.0 0
M  V30 7 C -2.6392 -1.4675 0.0 0
M  V30 8 C -0.0473 -4.4618 0.0 0
M  V30 9 C -2.651 -4.4618 0.0 0
M  V30 10 C -3.9529 -2.2013 0.0 0
M  V30 11 N -2.6629 -5.9531 0.0 0
M  V30 12 C -3.9648 -3.6925 0.0 0
M  V30 END ATOM
M  V30 BEGIN BOND
M  V30 1 2 1 2
M  V30 2 1 2 3
M  V30 3 1 2 4
M  V30 4 1 3 5
M  V30 5 2 4 6
M  V30 6 1 4 7
M  V30 7 2 5 8
M  V30 8 1 6 9
M  V30 9 2 7 10
M  V30 10 1 9 11
M  V30 11 2 9 12
M  V30 12 1 6 8
M  V30 13 1 10 12
M  V30 END BOND
M  V30 END CTAB
M  END
>  <Structure No>
59

>  <Catalog ID>
Z1741975980

>  <MW (desalted)>
160.173

>  <ClogP>
-0.040

>  <HBD>
2

>  <TPSA>
55.120

>  <RotBonds>
0

>  <Target>
Poly [ADP-ribose] polymerase-1

>  <fromRegid>
CHEMBL446240

>  <Similarity>
1.0

$$$$
Compound 60
Actelion Java MolfileCreator 2.0

  0  0  0  0  0  0              0 V3000
M  V30 BEGIN CTAB
M  V30 COUNTS 12 13 0 0 0
M  V30 BEGIN ATOM
M  V30 1 O 0.0 0.0 0.0 0
M  V30 2 C -0.0118 -1.4975 0.0 0
M  V30 3 N -1.3311 -2.2344 0.0 0
M  V30 4 C 1.2836 -2.2344 0.0 0
M  V30 5 C -1.343 -3.7319 0.0 0
M  V30 6 C 1.2717 -3.7319 0.0 0
M  V30 7 C 2.579 -1.4737 0.0 0
M  V30 8 C -0.0475 -4.4807 0.0 0
M  V30 9 C 2.5672 -4.4807 0.0 0
M  V30 10 C 3.8745 -2.2106 0.0 0
M  V30 11 O -0.0594 -5.9782 0.0 0
M  V30 12 C 3.8626 -3.7081 0.0 0
M  V30 END ATOM
M  V30 BEGIN BOND
M  V30 1 2 1 2
M  V30 2 1 2 3
M  V30 3 1 2 4
M  V30 4 1 3 5
M  V30 5 2 4 6
M  V30 6 1 4 7
M  V30 7 1 5 8
M  V30 8 1 6 9
M  V30 9 2 7 10
M  V30 10 2 8 11
M  V30 11 2 9 12
M  V30 12 1 6 8
M  V30 13 1 10 12
M  V30 END BOND
M  V30 END CTAB
M  END
>  <Structure No>
60

>  <Catalog ID>
Z1255462822

>  <MW (desalted)>
161.157

>  <ClogP>
0.639

>  <HBD>
1

>  <TPSA>
46.170

>  <RotBonds>
0

>  <Target>
Poly [ADP-ribose] polymerase-1

>  <fromRegid>
CHEMBL338314

>  <Similarity>
0.88

$$$$
Compound 61
Actelion Java MolfileCreator 2.0

  0  0  0  0  0  0              0 V3000
M  V30 BEGIN CTAB
M  V30 COUNTS 12 13 0 0 0
M  V30 BEGIN ATOM
M  V30 1 O 0.0 0.0 0.0 0
M  V30 2 C -0.0117 1.5006 0.0 0
M  V30 3 N 1.2661 2.2627 0.0 0
M  V30 4 C -1.313 2.2627 0.0 0
M  V30 5 C 1.2544 3.7634 0.0 0
M  V30 6 C -1.3248 3.7634 0.0 0
M  V30 7 C -2.6144 1.5241 0.0 0
M  V30 8 C -0.0468 4.5254 0.0 0
M  V30 9 C -2.6261 4.5254 0.0 0
M  V30 10 C -3.9158 2.2861 0.0 0
M  V30 11 C -3.9275 3.7868 0.0 0
M  V30 12 C -5.2171 1.5475 0.0 0
M  V30 END ATOM
M  V30 BEGIN BOND
M  V30 1 2 1 2
M  V30 2 1 2 3
M  V30 3 1 2 4
M  V30 4 1 3 5
M  V30 5 2 4 6
M  V30 6 1 4 7
M  V30 7 1 5 8
M  V30 8 1 6 9
M  V30 9 2 7 10
M  V30 10 2 9 11
M  V30 11 1 10 12
M  V30 12 1 6 8
M  V30 13 1 10 11
M  V30 END BOND
M  V30 END CTAB
M  END
>  <Structure No>
61

>  <Catalog ID>
Z1198164330

>  <MW (desalted)>
161.200

>  <ClogP>
1.495

>  <HBD>
1

>  <TPSA>
29.100

>  <RotBonds>
0

>  <Target>
Poly [ADP-ribose] polymerase-1

>  <fromRegid>
CHEMBL1688212

>  <Similarity>
0.95

$$$$
Compound 62
Actelion Java MolfileCreator 2.0

  0  0  0  0  0  0              0 V3000
M  V30 BEGIN CTAB
M  V30 COUNTS 12 13 0 0 0
M  V30 BEGIN ATOM
M  V30 1 Cl 0.0 0.0 0.0 0
M  V30 2 C 1.2896 0.769 0.0 0
M  V30 3 C 2.5792 0.0236 0.0 0
M  V30 4 C 1.2777 2.2834 0.0 0
M  V30 5 C 3.8688 0.7927 0.0 0
M  V30 6 C 2.5674 3.0525 0.0 0
M  V30 7 C 5.1585 0.0473 0.0 0
M  V30 8 C 3.857 2.3071 0.0 0
M  V30 9 O 5.1466 -1.4434 0.0 0
M  V30 10 N 6.4481 0.8163 0.0 0
M  V30 11 C 5.1466 3.0761 0.0 0
M  V30 12 C 6.4363 2.3307 0.0 0
M  V30 END ATOM
M  V30 BEGIN BOND
M  V30 1 1 1 2
M  V30 2 2 2 3
M  V30 3 1 2 4
M  V30 4 1 3 5
M  V30 5 2 4 6
M  V30 6 1 5 7
M  V30 7 2 5 8
M  V30 8 2 7 9
M  V30 9 1 7 10
M  V30 10 1 8 11
M  V30 11 1 10 12
M  V30 12 1 6 8
M  V30 13 1 11 12
M  V30 END BOND
M  V30 END CTAB
M  END
>  <Structure No>
62

>  <Catalog ID>
Z1198164332

>  <MW (desalted)>
181.619

>  <ClogP>
1.911

>  <HBD>
1

>  <TPSA>
29.100

>  <RotBonds>
0

>  <Target>
Poly [ADP-ribose] polymerase-1

>  <fromRegid>
CHEMBL3416132

>  <Similarity>
1.0

$$$$
Compound 63
Actelion Java MolfileCreator 2.0

  0  0  0  0  0  0              0 V3000
M  V30 BEGIN CTAB
M  V30 COUNTS 12 13 0 0 0
M  V30 BEGIN ATOM
M  V30 1 F 0.0 0.0 0.0 0
M  V30 2 C 1.2896 0.769 0.0 0
M  V30 3 C 2.5792 0.0236 0.0 0
M  V30 4 C 1.2777 2.2834 0.0 0
M  V30 5 C 3.8688 0.7927 0.0 0
M  V30 6 C 2.5674 3.0525 0.0 0
M  V30 7 C 5.1585 0.0473 0.0 0
M  V30 8 C 3.857 2.3071 0.0 0
M  V30 9 O 5.1466 -1.4434 0.0 0
M  V30 10 N 6.4481 0.8163 0.0 0
M  V30 11 C 5.1466 3.0761 0.0 0
M  V30 12 C 6.4363 2.3307 0.0 0
M  V30 END ATOM
M  V30 BEGIN BOND
M  V30 1 1 1 2
M  V30 2 2 2 3
M  V30 3 1 2 4
M  V30 4 1 3 5
M  V30 5 2 4 6
M  V30 6 1 5 7
M  V30 7 2 5 8
M  V30 8 2 7 9
M  V30 9 1 7 10
M  V30 10 1 8 11
M  V30 11 1 10 12
M  V30 12 1 6 8
M  V30 13 1 11 12
M  V30 END BOND
M  V30 END CTAB
M  END
>  <Structure No>
63

>  <Catalog ID>
Z1198164337

>  <MW (desalted)>
165.164

>  <ClogP>
1.341

>  <HBD>
1

>  <TPSA>
29.100

>  <RotBonds>
0

>  <Target>
Poly [ADP-ribose] polymerase-1

>  <fromRegid>
CHEMBL3629672

>  <Similarity>
1.0

$$$$
Compound 64
Actelion Java MolfileCreator 2.0

  0  0  0  0  0  0              0 V3000
M  V30 BEGIN CTAB
M  V30 COUNTS 12 13 0 0 0
M  V30 BEGIN ATOM
M  V30 1 O 0.0 0.0 0.0 0
M  V30 2 C -0.0117 1.506 0.0 0
M  V30 3 N -1.3177 2.2708 0.0 0
M  V30 4 C 1.2707 2.2708 0.0 0
M  V30 5 C -1.3295 3.7768 0.0 0
M  V30 6 C 1.2589 3.7768 0.0 0
M  V30 7 C 2.5531 1.5295 0.0 0
M  V30 8 C -0.047 4.5416 0.0 0
M  V30 9 C -2.6355 4.5416 0.0 0
M  V30 10 C 2.5414 4.5416 0.0 0
M  V30 11 C 3.8356 2.2943 0.0 0
M  V30 12 C 3.8238 3.8003 0.0 0
M  V30 END ATOM
M  V30 BEGIN BOND
M  V30 1 2 1 2
M  V30 2 1 2 3
M  V30 3 1 2 4
M  V30 4 1 3 5
M  V30 5 2 4 6
M  V30 6 1 4 7
M  V30 7 2 5 8
M  V30 8 1 5 9
M  V30 9 1 6 10
M  V30 10 2 7 11
M  V30 11 2 10 12
M  V30 12 1 6 8
M  V30 13 1 11 12
M  V30 END BOND
M  V30 END CTAB
M  END
>  <Structure No>
64

>  <Catalog ID>
Z1198162880

>  <MW (desalted)>
159.185

>  <ClogP>
1.311

>  <HBD>
1

>  <TPSA>
29.100

>  <RotBonds>
0

>  <Target>
Tankyrase-1

>  <fromRegid>
CHEMBL3764754

>  <Similarity>
0.87

$$$$
Compound 65
Actelion Java MolfileCreator 2.0

  0  0  0  0  0  0              0 V3000
M  V30 BEGIN CTAB
M  V30 COUNTS 12 13 0 0 0
M  V30 BEGIN ATOM
M  V30 1 N 0.0 0.0 0.0 0
M  V30 2 N -0.4696 -1.4088 0.0 0
M  V30 3 C -1.2209 0.8922 0.0 0
M  V30 4 C -1.9723 -1.397 0.0 0
M  V30 5 C -2.4419 0.0234 0.0 0
M  V30 6 C -1.2327 2.395 0.0 0
M  V30 7 C -3.8742 0.493 0.0 0
M  V30 8 C -4.9896 -0.493 0.0 0
M  V30 9 C -4.1912 1.9606 0.0 0
M  V30 10 C -6.4219 -0.0234 0.0 0
M  V30 11 C -5.6236 2.4302 0.0 0
M  V30 12 C -6.7389 1.444 0.0 0
M  V30 END ATOM
M  V30 BEGIN BOND
M  V30 1 1 1 2
M  V30 2 2 1 3
M  V30 3 1 2 4
M  V30 4 1 3 5
M  V30 5 1 3 6
M  V30 6 1 5 7
M  V30 7 2 7 8
M  V30 8 1 7 9
M  V30 9 1 8 10
M  V30 10 2 9 11
M  V30 11 2 10 12
M  V30 12 2 4 5
M  V30 13 1 11 12
M  V30 END BOND
M  V30 END CTAB
M  END
>  <Structure No>
65

>  <Catalog ID>
Z1201618222

>  <MW (desalted)>
158.200

>  <ClogP>
2.098

>  <HBD>
1

>  <TPSA>
28.680

>  <RotBonds>
1

>  <Target>
Serine/threonine-protein kinase Chk1

>  <fromRegid>
CHEMBL540487

>  <Similarity>
0.94

$$$$
Compound 66
Actelion Java MolfileCreator 2.0

  0  0  0  0  0  0              0 V3000
M  V30 BEGIN CTAB
M  V30 COUNTS 12 13 0 0 0
M  V30 BEGIN ATOM
M  V30 1 O 0.0 0.0 0.0 0
M  V30 2 C 0.3198 -1.457 0.0 0
M  V30 3 N 1.7768 -1.7768 0.0 0
M  V30 4 C -0.8647 -2.3809 0.0 0
M  V30 5 C 2.4165 -3.1154 0.0 0
M  V30 6 C -0.8765 -3.8735 0.0 0
M  V30 7 C -2.1795 -1.6228 0.0 0
M  V30 8 C 1.7531 -4.4539 0.0 0
M  V30 9 C -2.1914 -4.6198 0.0 0
M  V30 10 C 0.2842 -4.7974 0.0 0
M  V30 11 C -3.4944 -2.3572 0.0 0
M  V30 12 C -3.5063 -3.8498 0.0 0
M  V30 END ATOM
M  V30 BEGIN BOND
M  V30 1 2 1 2
M  V30 2 1 2 3
M  V30 3 1 2 4
M  V30 4 1 3 5
M  V30 5 2 4 6
M  V30 6 1 4 7
M  V30 7 1 5 8
M  V30 8 1 6 9
M  V30 9 1 6 10
M  V30 10 2 7 11
M  V30 11 2 9 12
M  V30 12 1 8 10
M  V30 13 1 11 12
M  V30 END BOND
M  V30 END CTAB
M  END
>  <Structure No>
66

>  <Catalog ID>
Z1201622867

>  <MW (desalted)>
161.200

>  <ClogP>
1.405

>  <HBD>
1

>  <TPSA>
29.100

>  <RotBonds>
0

>  <Target>
Poly [ADP-ribose] polymerase-1

>  <fromRegid>
CHEMBL1688212

>  <Similarity>
0.88

$$$$
Compound 67
Actelion Java MolfileCreator 2.0

  0  0  0  0  0  0              0 V3000
M  V30 BEGIN CTAB
M  V30 COUNTS 12 13 0 0 0
M  V30 BEGIN ATOM
M  V30 1 Br 0.0 0.0 0.0 0
M  V30 2 C 1.2896 0.769 0.0 0
M  V30 3 C 2.5792 0.0236 0.0 0
M  V30 4 C 1.2777 2.2834 0.0 0
M  V30 5 C 3.8688 0.7927 0.0 0
M  V30 6 C 2.5674 3.0525 0.0 0
M  V30 7 C 5.1585 0.0473 0.0 0
M  V30 8 C 3.857 2.3071 0.0 0
M  V30 9 O 5.1466 -1.4434 0.0 0
M  V30 10 N 6.4481 0.8163 0.0 0
M  V30 11 C 5.1466 3.0761 0.0 0
M  V30 12 C 6.4363 2.3307 0.0 0
M  V30 END ATOM
M  V30 BEGIN BOND
M  V30 1 1 1 2
M  V30 2 2 2 3
M  V30 3 1 2 4
M  V30 4 1 3 5
M  V30 5 2 4 6
M  V30 6 1 5 7
M  V30 7 2 5 8
M  V30 8 2 7 9
M  V30 9 1 7 10
M  V30 10 1 8 11
M  V30 11 1 10 12
M  V30 12 1 6 8
M  V30 13 1 11 12
M  V30 END BOND
M  V30 END CTAB
M  END
>  <Structure No>
67

>  <Catalog ID>
Z1209452761

>  <MW (desalted)>
226.070

>  <ClogP>
2.061

>  <HBD>
1

>  <TPSA>
29.100

>  <RotBonds>
0

>  <Target>
Poly [ADP-ribose] polymerase-1

>  <fromRegid>
CHEMBL3629673

>  <Similarity>
1.0

$$$$
Compound 68
Actelion Java MolfileCreator 2.0

  0  0  0  0  0  0              0 V3000
M  V30 BEGIN CTAB
M  V30 COUNTS 13 13 0 0 0
M  V30 BEGIN ATOM
M  V30 1 Cl 0.0 0.0 0.0 0
M  V30 2 O 9.2966 -2.5354 0.0 0
M  V30 3 C 9.2848 -1.0329 0.0 0
M  V30 4 N 10.5643 -0.2817 0.0 0
M  V30 5 C 7.9819 -0.2699 0.0 0
M  V30 6 C 10.5525 1.2207 0.0 0
M  V30 7 C 7.9701 1.2325 0.0 0
M  V30 8 C 6.6789 -1.0094 0.0 0
M  V30 9 C 9.2496 1.9837 0.0 0
M  V30 10 C 6.6672 1.9837 0.0 0
M  V30 11 C 5.376 -0.2582 0.0 0
M  V30 12 C 5.3643 1.2559 0.0 0
M  V30 13 N 4.0731 -0.986 0.0 0
M  V30 END ATOM
M  V30 BEGIN BOND
M  V30 1 2 2 3
M  V30 2 1 3 4
M  V30 3 1 3 5
M  V30 4 1 4 6
M  V30 5 2 5 7
M  V30 6 1 5 8
M  V30 7 2 6 9
M  V30 8 1 7 10
M  V30 9 2 8 11
M  V30 10 2 10 12
M  V30 11 1 11 13
M  V30 12 1 7 9
M  V30 13 1 11 12
M  V30 END BOND
M  V30 END CTAB
M  END
>  <Structure No>
68

>  <Catalog ID>
Z2353512672

>  <MW (desalted)>
160.173

>  <ClogP>
-0.040

>  <HBD>
2

>  <TPSA>
55.120

>  <RotBonds>
0

>  <Target>
Poly [ADP-ribose] polymerase-1

>  <fromRegid>
CHEMBL446240

>  <Similarity>
0.93

$$$$
Compound 69
Actelion Java MolfileCreator 2.0

  0  0  0  0  0  0              0 V3000
M  V30 BEGIN CTAB
M  V30 COUNTS 12 13 0 0 0
M  V30 BEGIN ATOM
M  V30 1 Br 0.0 0.0 0.0 0
M  V30 2 C -0.0117 1.5084 0.0 0
M  V30 3 C 1.2727 2.2744 0.0 0
M  V30 4 C -1.3198 2.2744 0.0 0
M  V30 5 C 1.2609 3.7828 0.0 0
M  V30 6 C 2.5572 1.532 0.0 0
M  V30 7 C -1.3316 3.7828 0.0 0
M  V30 8 C 2.5454 4.537 0.0 0
M  V30 9 C -0.0471 4.537 0.0 0
M  V30 10 C 3.8417 2.298 0.0 0
M  V30 11 O 2.5336 6.0455 0.0 0
M  V30 12 N 3.83 3.8064 0.0 0
M  V30 END ATOM
M  V30 BEGIN BOND
M  V30 1 1 1 2
M  V30 2 2 2 3
M  V30 3 1 2 4
M  V30 4 1 3 5
M  V30 5 1 3 6
M  V30 6 2 4 7
M  V30 7 1 5 8
M  V30 8 2 5 9
M  V30 9 1 6 10
M  V30 10 2 8 11
M  V30 11 1 8 12
M  V30 12 1 7 9
M  V30 13 1 10 12
M  V30 END BOND
M  V30 END CTAB
M  END
>  <Structure No>
69

>  <Catalog ID>
Z1218937020

>  <MW (desalted)>
226.070

>  <ClogP>
2.061

>  <HBD>
1

>  <TPSA>
29.100

>  <RotBonds>
0

>  <Target>
Poly [ADP-ribose] polymerase-1

>  <fromRegid>
CHEMBL3629673

>  <Similarity>
0.91

$$$$
Compound 70
Actelion Java MolfileCreator 2.0

  0  0  0  0  0  0              0 V3000
M  V30 BEGIN CTAB
M  V30 COUNTS 12 13 0 0 0
M  V30 BEGIN ATOM
M  V30 1 O 0.0 0.0 0.0 0
M  V30 2 C -0.0117 1.506 0.0 0
M  V30 3 N -1.3177 2.2708 0.0 0
M  V30 4 C 1.2707 2.2708 0.0 0
M  V30 5 C -1.3295 3.7768 0.0 0 CFG=2
M  V30 6 C 1.2589 3.7768 0.0 0
M  V30 7 C 2.5531 1.5295 0.0 0
M  V30 8 C -0.047 4.5416 0.0 0
M  V30 9 C -2.6355 4.5416 0.0 0
M  V30 10 C 2.5414 4.5416 0.0 0
M  V30 11 C 3.8356 2.2943 0.0 0
M  V30 12 C 3.8238 3.8003 0.0 0
M  V30 END ATOM
M  V30 BEGIN BOND
M  V30 1 2 1 2
M  V30 2 1 2 3
M  V30 3 1 2 4
M  V30 4 1 3 5
M  V30 5 2 4 6
M  V30 6 1 4 7
M  V30 7 1 5 8
M  V30 8 1 5 9 CFG=1
M  V30 9 1 6 10
M  V30 10 2 7 11
M  V30 11 2 10 12
M  V30 12 1 6 8
M  V30 13 1 11 12
M  V30 END BOND
M  V30 BEGIN COLLECTION
M  V30 MDLV30/STERAC1 ATOMS=(1 5)
M  V30 END COLLECTION
M  V30 END CTAB
M  END
>  <Structure No>
70

>  <Catalog ID>
Z1218937049

>  <MW (desalted)>
161.200

>  <ClogP>
1.515

>  <HBD>
1

>  <TPSA>
29.100

>  <RotBonds>
0

>  <Target>
Poly [ADP-ribose] polymerase-1

>  <fromRegid>
CHEMBL1688212

>  <Similarity>
0.86

$$$$
Compound 71
Actelion Java MolfileCreator 2.0

  0  0  0  0  0  0              0 V3000
M  V30 BEGIN CTAB
M  V30 COUNTS 13 13 0 0 0
M  V30 BEGIN ATOM
M  V30 1 Cl 0.0 0.0 0.0 0
M  V30 2 O 7.2992 3.1282 0.0 0
M  V30 3 C 7.2874 1.6352 0.0 0
M  V30 4 N 8.579 0.9005 0.0 0
M  V30 5 C 5.9721 0.9005 0.0 0
M  V30 6 C 8.5671 -0.5924 0.0 0
M  V30 7 C 5.9602 -0.5924 0.0 0
M  V30 8 C 4.6568 1.6589 0.0 0
M  V30 9 C 7.2518 -1.3271 0.0 0
M  V30 10 C 4.6449 -1.3271 0.0 0
M  V30 11 C 3.3415 0.9242 0.0 0
M  V30 12 N 4.6331 -2.8201 0.0 0
M  V30 13 C 3.3297 -0.5687 0.0 0
M  V30 END ATOM
M  V30 BEGIN BOND
M  V30 1 2 2 3
M  V30 2 1 3 4
M  V30 3 1 3 5
M  V30 4 1 4 6
M  V30 5 2 5 7
M  V30 6 1 5 8
M  V30 7 1 6 9
M  V30 8 1 7 10
M  V30 9 2 8 11
M  V30 10 1 10 12
M  V30 11 2 10 13
M  V30 12 1 7 9
M  V30 13 1 11 13
M  V30 END BOND
M  V30 END CTAB
M  END
>  <Structure No>
71

>  <Catalog ID>
Z1198176443

>  <MW (desalted)>
162.189

>  <ClogP>
0.089

>  <HBD>
2

>  <TPSA>
55.120

>  <RotBonds>
0

>  <Target>
Poly [ADP-ribose] polymerase-1

>  <fromRegid>
CHEMBL594759

>  <Similarity>
1.0

$$$$
Compound 72
Actelion Java MolfileCreator 2.0

  0  0  0  0  0  0              0 V3000
M  V30 BEGIN CTAB
M  V30 COUNTS 12 12 0 0 0
M  V30 BEGIN ATOM
M  V30 1 O 0.0 0.0 0.0 0
M  V30 2 C -0.0118 1.5112 0.0 0
M  V30 3 N -1.3223 2.2669 0.0 0
M  V30 4 C 1.2751 2.2669 0.0 0
M  V30 5 C 1.2633 3.7781 0.0 0
M  V30 6 C 2.562 1.5348 0.0 0
M  V30 7 C 2.5502 4.5338 0.0 0
M  V30 8 C 3.849 2.2905 0.0 0
M  V30 9 O 2.5384 6.045 0.0 0
M  V30 10 C 3.8372 3.8017 0.0 0
M  V30 11 C 3.8253 6.8007 0.0 0
M  V30 12 C 3.8135 8.3119 0.0 0
M  V30 END ATOM
M  V30 BEGIN BOND
M  V30 1 2 1 2
M  V30 2 1 2 3
M  V30 3 1 2 4
M  V30 4 2 4 5
M  V30 5 1 4 6
M  V30 6 1 5 7
M  V30 7 2 6 8
M  V30 8 1 7 9
M  V30 9 2 7 10
M  V30 10 1 9 11
M  V30 11 1 11 12
M  V30 12 1 8 10
M  V30 END BOND
M  V30 END CTAB
M  END
>  <Structure No>
72

>  <Catalog ID>
Z274459672

>  <MW (desalted)>
165.189

>  <ClogP>
1.365

>  <HBD>
1

>  <TPSA>
52.320

>  <RotBonds>
3

>  <Target>
Poly [ADP-ribose] polymerase-1

>  <fromRegid>
CHEMBL123978

>  <Similarity>
0.89

$$$$
Compound 73
Actelion Java MolfileCreator 2.0

  0  0  0  0  0  0              0 V3000
M  V30 BEGIN CTAB
M  V30 COUNTS 12 13 0 0 0
M  V30 BEGIN ATOM
M  V30 1 O 0.0 0.0 0.0 0
M  V30 2 C -1.3131 -0.7334 0.0 0
M  V30 3 N -2.6262 0.0236 0.0 0
M  V30 4 C -1.3249 -2.224 0.0 0
M  V30 5 C -2.6381 -2.9575 0.0 0
M  V30 6 C -0.0354 -2.9575 0.0 0
M  V30 7 N -4.0813 -2.4843 0.0 0
M  V30 8 C -2.6499 -4.4481 0.0 0
M  V30 9 C -0.0473 -4.4481 0.0 0
M  V30 10 C -4.9804 -3.6909 0.0 0
M  V30 11 C -1.3604 -5.1815 0.0 0
M  V30 12 C -4.0932 -4.8976 0.0 0
M  V30 END ATOM
M  V30 BEGIN BOND
M  V30 1 2 1 2
M  V30 2 1 2 3
M  V30 3 1 2 4
M  V30 4 2 4 5
M  V30 5 1 4 6
M  V30 6 1 5 7
M  V30 7 1 5 8
M  V30 8 2 6 9
M  V30 9 1 7 10
M  V30 10 2 8 11
M  V30 11 1 8 12
M  V30 12 1 9 11
M  V30 13 2 10 12
M  V30 END BOND
M  V30 END CTAB
M  END
>  <Structure No>
73

>  <Catalog ID>
Z1255438908

>  <MW (desalted)>
160.173

>  <ClogP>
0.837

>  <HBD>
2

>  <TPSA>
58.880

>  <RotBonds>
1

>  <Target>
Poly [ADP-ribose] polymerase-1

>  <fromRegid>
CHEMBL502330

>  <Similarity>
0.93

$$$$
Compound 74
Actelion Java MolfileCreator 2.0

  0  0  0  0  0  0              0 V3000
M  V30 BEGIN CTAB
M  V30 COUNTS 12 13 0 0 0
M  V30 BEGIN ATOM
M  V30 1 O 0.0 0.0 0.0 0
M  V30 2 C -0.0118 -1.4912 0.0 0
M  V30 3 N 1.2782 -2.225 0.0 0
M  V30 4 C -1.3255 -2.225 0.0 0
M  V30 5 C 1.2663 -3.7162 0.0 0
M  V30 6 C -1.3373 -3.7162 0.0 0
M  V30 7 C -2.6392 -1.4675 0.0 0
M  V30 8 C -0.0473 -4.4618 0.0 0
M  V30 9 C -2.651 -4.4618 0.0 0
M  V30 10 C -3.9529 -2.2013 0.0 0
M  V30 11 O -2.6629 -5.9531 0.0 0
M  V30 12 C -3.9648 -3.6925 0.0 0
M  V30 END ATOM
M  V30 BEGIN BOND
M  V30 1 1 1 2
M  V30 2 2 2 3
M  V30 3 1 2 4
M  V30 4 1 3 5
M  V30 5 1 4 6
M  V30 6 2 4 7
M  V30 7 2 5 8
M  V30 8 2 6 9
M  V30 9 1 7 10
M  V30 10 1 9 11
M  V30 11 1 9 12
M  V30 12 1 6 8
M  V30 13 2 10 12
M  V30 END BOND
M  V30 END CTAB
M  END
>  <Structure No>
74

>  <Catalog ID>
Z1255402655

>  <MW (desalted)>
161.157

>  <ClogP>
2.154

>  <HBD>
2

>  <TPSA>
53.350

>  <RotBonds>
0

>  <Target>
Poly [ADP-ribose] polymerase-1

>  <fromRegid>
CHEMBL339695

>  <Similarity>
0.87

$$$$
Compound 75
Actelion Java MolfileCreator 2.0

  0  0  0  0  0  0              0 V3000
M  V30 BEGIN CTAB
M  V30 COUNTS 12 13 0 0 0
M  V30 BEGIN ATOM
M  V30 1 O 0.0 0.0 0.0 0
M  V30 2 C -1.3131 -0.7334 0.0 0
M  V30 3 N -2.6262 0.0236 0.0 0
M  V30 4 C -1.3249 -2.224 0.0 0
M  V30 5 C -2.6381 -2.9575 0.0 0
M  V30 6 C -0.0354 -2.9575 0.0 0
M  V30 7 N -4.0813 -2.4843 0.0 0
M  V30 8 C -2.6499 -4.4481 0.0 0
M  V30 9 C -0.0473 -4.4481 0.0 0
M  V30 10 C -4.9804 -3.6909 0.0 0
M  V30 11 N -4.0932 -4.8976 0.0 0
M  V30 12 C -1.3604 -5.1815 0.0 0
M  V30 END ATOM
M  V30 BEGIN BOND
M  V30 1 2 1 2
M  V30 2 1 2 3
M  V30 3 1 2 4
M  V30 4 2 4 5
M  V30 5 1 4 6
M  V30 6 1 5 7
M  V30 7 1 5 8
M  V30 8 2 6 9
M  V30 9 2 7 10
M  V30 10 1 8 11
M  V30 11 2 8 12
M  V30 12 1 9 12
M  V30 13 1 10 11
M  V30 END BOND
M  V30 END CTAB
M  END
>  <Structure No>
75

>  <Catalog ID>
Z1255430314

>  <MW (desalted)>
161.161

>  <ClogP>
0.572

>  <HBD>
2

>  <TPSA>
71.770

>  <RotBonds>
1

>  <Target>
Poly [ADP-ribose] polymerase-1

>  <fromRegid>
CHEMBL133694

>  <Similarity>
1.0

$$$$
Compound 76
Actelion Java MolfileCreator 2.0

  0  0  0  0  0  0              0 V3000
M  V30 BEGIN CTAB
M  V30 COUNTS 12 13 0 0 0
M  V30 BEGIN ATOM
M  V30 1 O 0.0 0.0 0.0 0
M  V30 2 C -0.0118 -1.4897 0.0 0
M  V30 3 N 1.2769 -2.2228 0.0 0
M  V30 4 C -1.3242 -2.2228 0.0 0
M  V30 5 C 1.2651 -3.7125 0.0 0
M  V30 6 C -1.336 -3.7125 0.0 0
M  V30 7 C -2.6366 -1.4661 0.0 0
M  V30 8 C -0.0472 -4.4574 0.0 0
M  V30 9 C -2.6484 -4.4574 0.0 0
M  V30 10 C -3.949 -2.1991 0.0 0
M  V30 11 C -3.9608 -3.6889 0.0 0
M  V30 12 N -5.2732 -4.4338 0.0 0
M  V30 END ATOM
M  V30 BEGIN BOND
M  V30 1 2 1 2
M  V30 2 1 2 3
M  V30 3 1 2 4
M  V30 4 1 3 5
M  V30 5 2 4 6
M  V30 6 1 4 7
M  V30 7 2 5 8
M  V30 8 1 6 9
M  V30 9 2 7 10
M  V30 10 2 9 11
M  V30 11 1 11 12
M  V30 12 1 6 8
M  V30 13 1 10 11
M  V30 END BOND
M  V30 END CTAB
M  END
>  <Structure No>
76

>  <Catalog ID>
Z1255396439

>  <MW (desalted)>
160.173

>  <ClogP>
-0.040

>  <HBD>
2

>  <TPSA>
55.120

>  <RotBonds>
0

>  <Target>
Poly [ADP-ribose] polymerase-1

>  <fromRegid>
CHEMBL446240

>  <Similarity>
0.91

$$$$
Compound 77
Actelion Java MolfileCreator 2.0

  0  0  0  0  0  0              0 V3000
M  V30 BEGIN CTAB
M  V30 COUNTS 12 13 0 0 0
M  V30 BEGIN ATOM
M  V30 1 O 0.0 0.0 0.0 0
M  V30 2 C 0.32 -1.4579 0.0 0
M  V30 3 C -0.8652 -2.3825 0.0 0
M  V30 4 C 1.778 -1.778 0.0 0
M  V30 5 C -0.8771 -3.876 0.0 0
M  V30 6 C -2.3114 -1.9083 0.0 0
M  V30 7 C 2.418 -3.1174 0.0 0
M  V30 8 N -2.3232 -4.3264 0.0 0
M  V30 9 C 0.2844 -4.8006 0.0 0
M  V30 10 N -3.2122 -3.1174 0.0 0
M  V30 11 C 1.7542 -4.4568 0.0 0
M  V30 12 C -2.7973 -5.7488 0.0 0
M  V30 END ATOM
M  V30 BEGIN BOND
M  V30 1 2 1 2
M  V30 2 1 2 3
M  V30 3 1 2 4
M  V30 4 2 3 5
M  V30 5 1 3 6
M  V30 6 1 4 7
M  V30 7 1 5 8
M  V30 8 1 5 9
M  V30 9 2 6 10
M  V30 10 1 7 11
M  V30 11 1 8 12
M  V30 12 1 8 10
M  V30 13 1 9 11
M  V30 END BOND
M  V30 END CTAB
M  END
>  <Structure No>
77

>  <Catalog ID>
Z1255458525

>  <MW (desalted)>
164.204

>  <ClogP>
0.857

>  <HBD>
0

>  <TPSA>
34.890

>  <RotBonds>
0

>  <Target>
Serine/threonine-protein kinase Chk2

>  <fromRegid>
CHEMBL1981107

>  <Similarity>
0.99

$$$$
Compound 78
Actelion Java MolfileCreator 2.0

  0  0  0  0  0  0              0 V3000
M  V30 BEGIN CTAB
M  V30 COUNTS 12 13 0 0 0
M  V30 BEGIN ATOM
M  V30 1 Br 0.0 0.0 0.0 0
M  V30 2 C 1.2896 0.769 0.0 0
M  V30 3 C 2.5792 0.0236 0.0 0
M  V30 4 C 1.2778 2.2834 0.0 0
M  V30 5 C 3.8689 0.7927 0.0 0
M  V30 6 C 2.5674 3.0407 0.0 0
M  V30 7 C 3.857 2.3071 0.0 0
M  V30 8 C 5.1585 0.0473 0.0 0
M  V30 9 C 5.1467 3.0643 0.0 0
M  V30 10 C 6.4481 0.8163 0.0 0
M  V30 11 O 5.1348 4.5788 0.0 0
M  V30 12 N 6.4363 2.3308 0.0 0
M  V30 END ATOM
M  V30 BEGIN BOND
M  V30 1 1 1 2
M  V30 2 2 2 3
M  V30 3 1 2 4
M  V30 4 1 3 5
M  V30 5 2 4 6
M  V30 6 2 5 7
M  V30 7 1 5 8
M  V30 8 1 7 9
M  V30 9 2 8 10
M  V30 10 2 9 11
M  V30 11 1 9 12
M  V30 12 1 6 7
M  V30 13 1 10 12
M  V30 END BOND
M  V30 END CTAB
M  END
>  <Structure No>
78

>  <Catalog ID>
Z1741974434

>  <MW (desalted)>
224.054

>  <ClogP>
1.822

>  <HBD>
1

>  <TPSA>
29.100

>  <RotBonds>
0

>  <Target>
Poly [ADP-ribose] polymerase-1

>  <fromRegid>
CHEMBL1173518

>  <Similarity>
0.9

$$$$
Compound 79
Actelion Java MolfileCreator 2.0

  0  0  0  0  0  0              0 V3000
M  V30 BEGIN CTAB
M  V30 COUNTS 12 13 0 0 0
M  V30 BEGIN ATOM
M  V30 1 O 0.0 0.0 0.0 0
M  V30 2 C -0.0117 1.5021 0.0 0
M  V30 3 N 1.2674 2.2649 0.0 0
M  V30 4 C -1.3143 2.2649 0.0 0
M  V30 5 C 1.2556 3.767 0.0 0
M  V30 6 C -2.617 1.5256 0.0 0
M  V30 7 C -1.3261 3.767 0.0 0
M  V30 8 C -0.0469 4.5298 0.0 0
M  V30 9 N -2.6287 0.0469 0.0 0
M  V30 10 C -3.9196 2.2884 0.0 0
M  V30 11 C -2.6287 4.5298 0.0 0
M  V30 12 C -3.9313 3.7905 0.0 0
M  V30 END ATOM
M  V30 BEGIN BOND
M  V30 1 2 1 2
M  V30 2 1 2 3
M  V30 3 1 2 4
M  V30 4 1 3 5
M  V30 5 2 4 6
M  V30 6 1 4 7
M  V30 7 2 5 8
M  V30 8 1 6 9
M  V30 9 1 6 10
M  V30 10 2 7 11
M  V30 11 2 10 12
M  V30 12 1 7 8
M  V30 13 1 11 12
M  V30 END BOND
M  V30 END CTAB
M  END
>  <Structure No>
79

>  <Catalog ID>
Z1262683229

>  <MW (desalted)>
160.173

>  <ClogP>
-0.040

>  <HBD>
2

>  <TPSA>
55.120

>  <RotBonds>
0

>  <Target>
Poly [ADP-ribose] polymerase-1

>  <fromRegid>
CHEMBL446240

>  <Similarity>
0.92

$$$$
Compound 80
Actelion Java MolfileCreator 2.0

  0  0  0  0  0  0              0 V3000
M  V30 BEGIN CTAB
M  V30 COUNTS 12 13 0 0 0
M  V30 BEGIN ATOM
M  V30 1 Br 0.0 0.0 0.0 0
M  V30 2 C -0.0117 1.5084 0.0 0
M  V30 3 C 1.2727 2.2744 0.0 0
M  V30 4 C -1.3198 2.2744 0.0 0
M  V30 5 C 1.2609 3.7828 0.0 0
M  V30 6 C 2.5572 1.532 0.0 0
M  V30 7 C -1.3316 3.7828 0.0 0
M  V30 8 C 2.5454 4.537 0.0 0
M  V30 9 C -0.0471 4.537 0.0 0
M  V30 10 C 3.8417 2.298 0.0 0
M  V30 11 O 2.5336 6.0455 0.0 0
M  V30 12 N 3.83 3.8064 0.0 0
M  V30 END ATOM
M  V30 BEGIN BOND
M  V30 1 1 1 2
M  V30 2 2 2 3
M  V30 3 1 2 4
M  V30 4 1 3 5
M  V30 5 1 3 6
M  V30 6 2 4 7
M  V30 7 1 5 8
M  V30 8 2 5 9
M  V30 9 2 6 10
M  V30 10 2 8 11
M  V30 11 1 8 12
M  V30 12 1 7 9
M  V30 13 1 10 12
M  V30 END BOND
M  V30 END CTAB
M  END
>  <Structure No>
80

>  <Catalog ID>
Z1269168088

>  <MW (desalted)>
224.054

>  <ClogP>
1.822

>  <HBD>
1

>  <TPSA>
29.100

>  <RotBonds>
0

>  <Target>
Poly [ADP-ribose] polymerase-1

>  <fromRegid>
CHEMBL1173518

>  <Similarity>
1.0

$$$$
Compound 81
Actelion Java MolfileCreator 2.0

  0  0  0  0  0  0              0 V3000
M  V30 BEGIN CTAB
M  V30 COUNTS 12 13 0 0 0
M  V30 BEGIN ATOM
M  V30 1 S 0.0 0.0 0.0 0
M  V30 2 C 1.4161 0.472 0.0 0
M  V30 3 C -0.8968 1.2273 0.0 0
M  V30 4 N 2.7024 -0.2596 0.0 0
M  V30 5 C 1.4043 1.9825 0.0 0
M  V30 6 C -0.0236 2.4546 0.0 0
M  V30 7 C 3.9887 0.4956 0.0 0
M  V30 8 C 2.6906 2.7378 0.0 0
M  V30 9 N 3.9769 2.0061 0.0 0
M  V30 10 O 2.6788 4.2483 0.0 0
M  V30 11 C 5.2632 2.7614 0.0 0
M  V30 12 C 5.2514 4.2719 0.0 0
M  V30 END ATOM
M  V30 BEGIN BOND
M  V30 1 1 1 2
M  V30 2 1 1 3
M  V30 3 1 2 4
M  V30 4 2 2 5
M  V30 5 2 3 6
M  V30 6 2 4 7
M  V30 7 1 5 8
M  V30 8 1 7 9
M  V30 9 2 8 10
M  V30 10 1 9 11
M  V30 11 1 11 12
M  V30 12 1 5 6
M  V30 13 1 8 9
M  V30 END BOND
M  V30 END CTAB
M  END
>  <Structure No>
81

>  <Catalog ID>
Z153981792

>  <MW (desalted)>
180.227

>  <ClogP>
0.955

>  <HBD>
0

>  <TPSA>
32.670

>  <RotBonds>
1

>  <Target>
Poly [ADP-ribose] polymerase-1

>  <fromRegid>
CHEMBL2432028

>  <Similarity>
0.87

$$$$
Compound 82
Actelion Java MolfileCreator 2.0

  0  0  0  0  0  0              0 V3000
M  V30 BEGIN CTAB
M  V30 COUNTS 13 14 0 0 0
M  V30 BEGIN ATOM
M  V30 1 O 0.0 0.0 0.0 0
M  V30 2 C -1.3076 -0.7421 0.0 0
M  V30 3 N -2.6152 0.0235 0.0 0
M  V30 4 N -1.3193 -2.2264 0.0 0
M  V30 5 C -3.9228 -0.7185 0.0 0
M  V30 6 C -2.6269 1.5314 0.0 0
M  V30 7 C -2.6269 -2.9686 0.0 0
M  V30 8 N -5.36 -0.2473 0.0 0
M  V30 9 C -3.9346 -2.2029 0.0 0
M  V30 10 O -2.6387 -4.4529 0.0 0
M  V30 11 C -6.2553 -1.4489 0.0 0
M  V30 12 N -5.3717 -2.6505 0.0 0
M  V30 13 C -5.843 -4.0641 0.0 0
M  V30 END ATOM
M  V30 BEGIN BOND
M  V30 1 2 1 2
M  V30 2 1 2 3
M  V30 3 1 2 4
M  V30 4 1 3 5
M  V30 5 1 3 6
M  V30 6 1 4 7
M  V30 7 1 5 8
M  V30 8 2 5 9
M  V30 9 2 7 10
M  V30 10 2 8 11
M  V30 11 1 9 12
M  V30 12 1 12 13
M  V30 13 1 7 9
M  V30 14 1 11 12
M  V30 END BOND
M  V30 END CTAB
M  END
>  <Structure No>
82

>  <Catalog ID>
Z56347209

>  <MW (desalted)>
180.164

>  <ClogP>
-0.672

>  <HBD>
1

>  <TPSA>
67.230

>  <RotBonds>
0

>  <Target>
Serine-protein kinase ATM

>  <fromRegid>
CHEMBL113

>  <Similarity>
0.97

$$$$
Compound 83
Actelion Java MolfileCreator 2.0

  0  0  0  0  0  0              0 V3000
M  V30 BEGIN CTAB
M  V30 COUNTS 13 14 0 0 0
M  V30 BEGIN ATOM
M  V30 1 Cl 0.0 0.0 0.0 0
M  V30 2 C -0.0118 -1.4963 0.0 0
M  V30 3 C 1.2825 -2.2326 0.0 0
M  V30 4 C -1.33 -2.2326 0.0 0
M  V30 5 N 2.577 -1.4725 0.0 0
M  V30 6 C 1.2706 -3.7289 0.0 0
M  V30 7 C -1.3419 -3.7289 0.0 0
M  V30 8 C 3.8714 -2.2088 0.0 0
M  V30 9 C 2.5651 -4.4771 0.0 0
M  V30 10 C -0.0475 -4.4771 0.0 0
M  V30 11 Cl -2.6601 -4.4771 0.0 0
M  V30 12 N 3.8595 -3.7051 0.0 0
M  V30 13 O 2.5532 -5.9734 0.0 0
M  V30 END ATOM
M  V30 BEGIN BOND
M  V30 1 1 1 2
M  V30 2 2 2 3
M  V30 3 1 2 4
M  V30 4 1 3 5
M  V30 5 1 3 6
M  V30 6 2 4 7
M  V30 7 2 5 8
M  V30 8 1 6 9
M  V30 9 2 6 10
M  V30 10 1 7 11
M  V30 11 1 8 12
M  V30 12 2 9 13
M  V30 13 1 7 10
M  V30 14 1 9 12
M  V30 END BOND
M  V30 END CTAB
M  END
>  <Structure No>
83

>  <Catalog ID>
Z56893138

>  <MW (desalted)>
215.036

>  <ClogP>
1.809

>  <HBD>
1

>  <TPSA>
41.460

>  <RotBonds>
0

>  <Target>
Poly [ADP-ribose] polymerase-1

>  <fromRegid>
CHEMBL1949844

>  <Similarity>
0.89

$$$$
Compound 84
Actelion Java MolfileCreator 2.0

  0  0  0  0  0  0              0 V3000
M  V30 BEGIN CTAB
M  V30 COUNTS 13 14 0 0 0
M  V30 BEGIN ATOM
M  V30 1 S 0.0 0.0 0.0 0
M  V30 2 C 1.4174 0.4724 0.0 0
M  V30 3 C -0.8977 1.2284 0.0 0
M  V30 4 N 2.705 -0.2598 0.0 0
M  V30 5 N 1.4056 1.9844 0.0 0
M  V30 6 C -0.0236 2.4569 0.0 0
M  V30 7 C 3.9925 0.4961 0.0 0
M  V30 8 C 2.6932 2.7404 0.0 0
M  V30 9 C 3.9807 2.0081 0.0 0
M  V30 10 O 2.6814 4.2524 0.0 0
M  V30 11 C 5.2683 2.764 0.0 0
M  V30 12 O 6.5558 2.0317 0.0 0
M  V30 13 O 5.2565 4.276 0.0 0
M  V30 END ATOM
M  V30 BEGIN BOND
M  V30 1 1 1 2
M  V30 2 1 1 3
M  V30 3 2 2 4
M  V30 4 1 2 5
M  V30 5 2 3 6
M  V30 6 1 4 7
M  V30 7 1 5 8
M  V30 8 2 7 9
M  V30 9 2 8 10
M  V30 10 1 9 11
M  V30 11 2 11 12
M  V30 12 1 11 13
M  V30 13 1 5 6
M  V30 14 1 8 9
M  V30 END BOND
M  V30 END CTAB
M  END
>  <Structure No>
84

>  <Catalog ID>
Z57301587

>  <MW (desalted)>
196.183

>  <ClogP>
0.136

>  <HBD>
1

>  <TPSA>
69.970

>  <RotBonds>
1

>  <Target>
Serine/threonine-protein kinase Chk1

>  <fromRegid>
CHEMBL1971679

>  <Similarity>
1.0

$$$$
Compound 85
Actelion Java MolfileCreator 2.0

  0  0  0  0  0  0              0 V3000
M  V30 BEGIN CTAB
M  V30 COUNTS 13 14 0 0 0
M  V30 BEGIN ATOM
M  V30 1 Br 0.0 0.0 0.0 0
M  V30 2 C -0.0118 -1.4963 0.0 0
M  V30 3 C 1.2825 -2.2326 0.0 0
M  V30 4 C -1.33 -2.2326 0.0 0
M  V30 5 N 2.577 -1.4725 0.0 0
M  V30 6 C 1.2706 -3.7289 0.0 0
M  V30 7 C -1.3419 -3.7289 0.0 0
M  V30 8 C 3.8714 -2.2088 0.0 0
M  V30 9 C 2.5651 -4.4771 0.0 0
M  V30 10 C -0.0475 -4.4771 0.0 0
M  V30 11 Br -2.6601 -4.4771 0.0 0
M  V30 12 N 3.8595 -3.7051 0.0 0
M  V30 13 O 2.5532 -5.9734 0.0 0
M  V30 END ATOM
M  V30 BEGIN BOND
M  V30 1 1 1 2
M  V30 2 2 2 3
M  V30 3 1 2 4
M  V30 4 1 3 5
M  V30 5 1 3 6
M  V30 6 2 4 7
M  V30 7 2 5 8
M  V30 8 1 6 9
M  V30 9 2 6 10
M  V30 10 1 7 11
M  V30 11 1 8 12
M  V30 12 2 9 13
M  V30 13 1 7 10
M  V30 14 1 9 12
M  V30 END BOND
M  V30 END CTAB
M  END
>  <Structure No>
85

>  <Catalog ID>
Z104508912

>  <MW (desalted)>
303.938

>  <ClogP>
2.109

>  <HBD>
1

>  <TPSA>
41.460

>  <RotBonds>
0

>  <Target>
Serine/threonine-protein kinase Chk1

>  <fromRegid>
CHEMBL562488

>  <Similarity>
0.9

$$$$
Compound 86
Actelion Java MolfileCreator 2.0

  0  0  0  0  0  0              0 V3000
M  V30 BEGIN CTAB
M  V30 COUNTS 13 15 0 0 0
M  V30 BEGIN ATOM
M  V30 1 S 0.0 0.0 0.0 0
M  V30 2 C -1.2427 -0.8521 0.0 0
M  V30 3 C 1.1835 -0.8994 0.0 0
M  V30 4 N -2.7221 -0.497 0.0 0
M  V30 5 C -0.8166 -2.2842 0.0 0
M  V30 6 C 0.6746 -2.3078 0.0 0
M  V30 7 C 2.6747 -0.9231 0.0 0
M  V30 8 C -3.7636 -1.5859 0.0 0
M  V30 9 C -1.8581 -3.373 0.0 0
M  V30 10 C 1.8581 -3.2073 0.0 0
M  V30 11 C 3.1008 -2.3552 0.0 0
M  V30 12 N -3.3375 -3.018 0.0 0
M  V30 13 O -1.432 -4.8051 0.0 0
M  V30 END ATOM
M  V30 BEGIN BOND
M  V30 1 1 1 2
M  V30 2 1 1 3
M  V30 3 1 2 4
M  V30 4 2 2 5
M  V30 5 2 3 6
M  V30 6 1 3 7
M  V30 7 2 4 8
M  V30 8 1 5 9
M  V30 9 1 6 10
M  V30 10 1 7 11
M  V30 11 1 8 12
M  V30 12 2 9 13
M  V30 13 1 5 6
M  V30 14 1 9 12
M  V30 15 1 10 11
M  V30 END BOND
M  V30 END CTAB
M  END
>  <Structure No>
86

>  <Catalog ID>
Z56887776

>  <MW (desalted)>
192.238

>  <ClogP>
1.137

>  <HBD>
1

>  <TPSA>
41.460

>  <RotBonds>
0

>  <Target>
Serine/threonine-protein kinase Chk1

>  <fromRegid>
CHEMBL539906

>  <Similarity>
0.97

$$$$
Compound 87
Actelion Java MolfileCreator 2.0

  0  0  0  0  0  0              0 V3000
M  V30 BEGIN CTAB
M  V30 COUNTS 13 14 0 0 0
M  V30 BEGIN ATOM
M  V30 1 O 0.0 0.0 0.0 0
M  V30 2 C 1.2941 -0.7479 0.0 0
M  V30 3 N 1.2822 -2.2439 0.0 0
M  V30 4 N 2.5882 0.0237 0.0 0
M  V30 5 C 2.5763 -2.9919 0.0 0
M  V30 6 C -0.0356 -2.9919 0.0 0
M  V30 7 C 3.8823 -0.7242 0.0 0
M  V30 8 O 2.5644 -4.4878 0.0 0
M  V30 9 C 3.8704 -2.2201 0.0 0
M  V30 10 C 5.1764 0.0474 0.0 0
M  V30 11 C 5.1646 -2.9681 0.0 0
M  V30 12 C 6.4705 -0.7004 0.0 0
M  V30 13 C 6.4587 -2.1964 0.0 0
M  V30 END ATOM
M  V30 BEGIN BOND
M  V30 1 2 1 2
M  V30 2 1 2 3
M  V30 3 1 2 4
M  V30 4 1 3 5
M  V30 5 1 3 6
M  V30 6 1 4 7
M  V30 7 2 5 8
M  V30 8 1 5 9
M  V30 9 1 7 10
M  V30 10 1 9 11
M  V30 11 2 10 12
M  V30 12 2 11 13
M  V30 13 2 7 9
M  V30 14 1 12 13
M  V30 END BOND
M  V30 END CTAB
M  END
>  <Structure No>
87

>  <Catalog ID>
Z164707292

>  <MW (desalted)>
176.172

>  <ClogP>
1.384

>  <HBD>
1

>  <TPSA>
49.410

>  <RotBonds>
0

>  <Target>
Poly [ADP-ribose] polymerase-1

>  <fromRegid>
CHEMBL421646

>  <Similarity>
0.89

$$$$
Compound 88
Actelion Java MolfileCreator 2.0

  0  0  0  0  0  0              0 V3000
M  V30 BEGIN CTAB
M  V30 COUNTS 13 14 0 0 0
M  V30 BEGIN ATOM
M  V30 1 F 0.0 0.0 0.0 0
M  V30 2 C 1.2886 0.7684 0.0 0
M  V30 3 C 1.2768 2.2817 0.0 0
M  V30 4 C 2.5773 0.0236 0.0 0
M  V30 5 N -0.0354 3.0383 0.0 0
M  V30 6 C 2.5654 3.0383 0.0 0
M  V30 7 C 3.8659 0.7921 0.0 0
M  V30 8 C 3.8541 2.3053 0.0 0
M  V30 9 N 5.1546 0.0472 0.0 0
M  V30 10 C 5.1428 3.062 0.0 0
M  V30 11 C 6.4432 0.8157 0.0 0
M  V30 12 O 5.1309 4.5753 0.0 0
M  V30 13 N 6.4314 2.329 0.0 0
M  V30 END ATOM
M  V30 BEGIN BOND
M  V30 1 1 1 2
M  V30 2 2 2 3
M  V30 3 1 2 4
M  V30 4 1 3 5
M  V30 5 1 3 6
M  V30 6 2 4 7
M  V30 7 2 6 8
M  V30 8 1 7 9
M  V30 9 1 8 10
M  V30 10 2 9 11
M  V30 11 2 10 12
M  V30 12 1 10 13
M  V30 13 1 7 8
M  V30 14 1 11 13
M  V30 END BOND
M  V30 END CTAB
M  END
>  <Structure No>
88

>  <Catalog ID>
Z166632342

>  <MW (desalted)>
179.151

>  <ClogP>
-0.001

>  <HBD>
2

>  <TPSA>
67.480

>  <RotBonds>
0

>  <Target>
Poly [ADP-ribose] polymerase-1

>  <fromRegid>
CHEMBL1949848

>  <Similarity>
0.85

$$$$
Compound 89
Actelion Java MolfileCreator 2.0

  0  0  0  0  0  0              0 V3000
M  V30 BEGIN CTAB
M  V30 COUNTS 13 14 0 0 0
M  V30 BEGIN ATOM
M  V30 1 O 0.0 0.0 0.0 0
M  V30 2 C -0.0117 1.5059 0.0 0
M  V30 3 N -1.3176 2.2706 0.0 0
M  V30 4 C 1.2706 2.2706 0.0 0
M  V30 5 C -1.3294 3.7765 0.0 0
M  V30 6 C 1.2588 3.7765 0.0 0
M  V30 7 C 2.5529 1.5294 0.0 0
M  V30 8 N -0.047 4.5412 0.0 0
M  V30 9 C -2.6353 4.5412 0.0 0
M  V30 10 C 2.5412 4.5412 0.0 0
M  V30 11 C 3.8353 2.2941 0.0 0
M  V30 12 O -3.9412 3.8 0.0 0
M  V30 13 C 3.8235 3.8 0.0 0
M  V30 END ATOM
M  V30 BEGIN BOND
M  V30 1 2 1 2
M  V30 2 1 2 3
M  V30 3 1 2 4
M  V30 4 1 3 5
M  V30 5 2 4 6
M  V30 6 1 4 7
M  V30 7 2 5 8
M  V30 8 1 5 9
M  V30 9 1 6 10
M  V30 10 2 7 11
M  V30 11 1 9 12
M  V30 12 2 10 13
M  V30 13 1 6 8
M  V30 14 1 11 13
M  V30 END BOND
M  V30 END CTAB
M  END
>  <Structure No>
89

>  <Catalog ID>
Z94598966

>  <MW (desalted)>
176.172

>  <ClogP>
-0.733

>  <HBD>
2

>  <TPSA>
61.690

>  <RotBonds>
1

>  <Target>
Poly [ADP-ribose] polymerase-1

>  <fromRegid>
CHEMBL395092

>  <Similarity>
0.89

$$$$
Compound 90
Actelion Java MolfileCreator 2.0

  0  0  0  0  0  0              0 V3000
M  V30 BEGIN CTAB
M  V30 COUNTS 13 15 0 0 0
M  V30 BEGIN ATOM
M  V30 1 S 0.0 0.0 0.0 0
M  V30 2 C 0.4223 1.443 0.0 0
M  V30 3 C -1.5016 -0.0234 0.0 0
M  V30 4 N -0.8094 2.3111 0.0 0
M  V30 5 N 1.8184 1.9474 0.0 0
M  V30 6 C -2.0061 1.396 0.0 0
M  V30 7 C -2.6983 -0.915 0.0 0
M  V30 8 C -3.5078 1.3726 0.0 0
M  V30 9 C -3.9301 -0.0469 0.0 0
M  V30 10 C -4.5402 2.4754 0.0 0
M  V30 11 C -5.3966 -0.3754 0.0 0
M  V30 12 C -6.0066 2.1469 0.0 0
M  V30 13 C -6.429 0.7273 0.0 0
M  V30 END ATOM
M  V30 BEGIN BOND
M  V30 1 1 1 2
M  V30 2 1 1 3
M  V30 3 2 2 4
M  V30 4 1 2 5
M  V30 5 2 3 6
M  V30 6 1 3 7
M  V30 7 1 6 8
M  V30 8 1 7 9
M  V30 9 1 8 10
M  V30 10 1 9 11
M  V30 11 2 10 12
M  V30 12 2 11 13
M  V30 13 1 4 6
M  V30 14 2 8 9
M  V30 15 1 12 13
M  V30 END BOND
M  V30 END CTAB
M  END
>  <Structure No>
90

>  <Catalog ID>
Z240125452

>  <MW (desalted)>
188.249

>  <ClogP>
2.372

>  <HBD>
1

>  <TPSA>
38.910

>  <RotBonds>
0

>  <Target>
Serine/threonine-protein kinase Chk1

>  <fromRegid>
CHEMBL1178727

>  <Similarity>
1.0

$$$$
Compound 91
Actelion Java MolfileCreator 2.0

  0  0  0  0  0  0              0 V3000
M  V30 BEGIN CTAB
M  V30 COUNTS 14 14 0 0 0
M  V30 BEGIN ATOM
M  V30 1 Cl 0.0 0.0 0.0 0
M  V30 2 N 5.7613 -1.3222 0.0 0
M  V30 3 C 6.21 0.118 0.0 0 CFG=2
M  V30 4 C 4.2856 -1.6174 0.0 0
M  V30 5 C 7.6267 0.5903 0.0 0
M  V30 6 C 5.3127 1.3458 0.0 0
M  V30 7 C 3.8133 -3.0341 0.0 0
M  V30 8 C 7.6149 2.1014 0.0 0
M  V30 9 C 8.9135 -0.1416 0.0 0
M  V30 10 C 6.1863 2.5737 0.0 0
M  V30 11 C 3.3411 -4.4508 0.0 0
M  V30 12 C 8.9017 2.8688 0.0 0
M  V30 13 C 10.2004 0.6257 0.0 0
M  V30 14 C 10.1886 2.125 0.0 0
M  V30 END ATOM
M  V30 BEGIN BOND
M  V30 1 1 3 2 CFG=1
M  V30 2 1 2 4
M  V30 3 1 3 5
M  V30 4 1 3 6
M  V30 5 1 4 7
M  V30 6 2 5 8
M  V30 7 1 5 9
M  V30 8 1 6 10
M  V30 9 3 7 11
M  V30 10 1 8 12
M  V30 11 2 9 13
M  V30 12 2 12 14
M  V30 13 1 8 10
M  V30 14 1 13 14
M  V30 END BOND
M  V30 BEGIN COLLECTION
M  V30 MDLV30/STERAC1 ATOMS=(1 3)
M  V30 END COLLECTION
M  V30 END CTAB
M  END
>  <Structure No>
91

>  <Catalog ID>
Z425484918

>  <MW (desalted)>
171.238

>  <ClogP>
2.524

>  <HBD>
1

>  <TPSA>
12.030

>  <RotBonds>
2

>  <Target>
Poly [ADP-ribose] polymerase-1

>  <fromRegid>
CHEMBL417002

>  <Similarity>
1.0

$$$$
Compound 92
Actelion Java MolfileCreator 2.0

  0  0  0  0  0  0              0 V3000
M  V30 BEGIN CTAB
M  V30 COUNTS 13 14 0 0 0
M  V30 BEGIN ATOM
M  V30 1 O 0.0 0.0 0.0 0
M  V30 2 C -0.0117 1.5059 0.0 0
M  V30 3 N -1.3176 2.2706 0.0 0
M  V30 4 C 1.2706 2.2706 0.0 0
M  V30 5 C -1.3294 3.7765 0.0 0
M  V30 6 C 1.2588 3.7765 0.0 0
M  V30 7 C 2.5529 1.5294 0.0 0
M  V30 8 N -0.047 4.5412 0.0 0
M  V30 9 C -2.6353 4.5412 0.0 0
M  V30 10 C 2.5412 4.5412 0.0 0
M  V30 11 C 3.8353 2.2941 0.0 0
M  V30 12 C -3.9412 3.8 0.0 0
M  V30 13 C 3.8235 3.8 0.0 0
M  V30 END ATOM
M  V30 BEGIN BOND
M  V30 1 2 1 2
M  V30 2 1 2 3
M  V30 3 1 2 4
M  V30 4 1 3 5
M  V30 5 2 4 6
M  V30 6 1 4 7
M  V30 7 2 5 8
M  V30 8 1 5 9
M  V30 9 1 6 10
M  V30 10 2 7 11
M  V30 11 2 9 12
M  V30 12 2 10 13
M  V30 13 1 6 8
M  V30 14 1 11 13
M  V30 END BOND
M  V30 END CTAB
M  END
>  <Structure No>
92

>  <Catalog ID>
Z362599870

>  <MW (desalted)>
172.183

>  <ClogP>
1.029

>  <HBD>
1

>  <TPSA>
41.460

>  <RotBonds>
1

>  <Target>
Poly [ADP-ribose] polymerase-1

>  <fromRegid>
CHEMBL395092

>  <Similarity>
0.87

$$$$
Compound 93
Actelion Java MolfileCreator 2.0

  0  0  0  0  0  0              0 V3000
M  V30 BEGIN CTAB
M  V30 COUNTS 15 14 0 0 0
M  V30 BEGIN ATOM
M  V30 1 Cl 0.0 0.0 0.0 0
M  V30 2 Cl 3.5866 0.0943 0.0 0
M  V30 3 O -0.5663 -7.362 0.0 0
M  V30 4 C -0.5781 -5.8519 0.0 0
M  V30 5 N -1.8877 -5.0968 0.0 0
M  V30 6 C 0.7078 -5.0968 0.0 0
M  V30 7 C -1.8995 -3.5866 0.0 0
M  V30 8 C 0.696 -3.5866 0.0 0
M  V30 9 C 1.9938 -5.8283 0.0 0
M  V30 10 N -0.6135 -2.8315 0.0 0
M  V30 11 C -3.2091 -2.8315 0.0 0
M  V30 12 C 1.982 -2.8315 0.0 0
M  V30 13 C 3.2799 -5.0732 0.0 0
M  V30 14 N -4.5187 -3.5748 0.0 0
M  V30 15 C 3.2681 -3.5748 0.0 0
M  V30 END ATOM
M  V30 BEGIN BOND
M  V30 1 2 3 4
M  V30 2 1 4 5
M  V30 3 1 4 6
M  V30 4 1 5 7
M  V30 5 2 6 8
M  V30 6 1 6 9
M  V30 7 2 7 10
M  V30 8 1 7 11
M  V30 9 1 8 12
M  V30 10 2 9 13
M  V30 11 1 11 14
M  V30 12 2 12 15
M  V30 13 1 8 10
M  V30 14 1 13 15
M  V30 END BOND
M  V30 END CTAB
M  END
>  <Structure No>
93

>  <Catalog ID>
Z2335631488

>  <MW (desalted)>
175.187

>  <ClogP>
-0.743

>  <HBD>
2

>  <TPSA>
67.480

>  <RotBonds>
1

>  <Target>
Poly [ADP-ribose] polymerase-1

>  <fromRegid>
CHEMBL395092

>  <Similarity>
0.91

$$$$
Compound 94
Actelion Java MolfileCreator 2.0

  0  0  0  0  0  0              0 V3000
M  V30 BEGIN CTAB
M  V30 COUNTS 13 14 0 0 0
M  V30 BEGIN ATOM
M  V30 1 S 0.0 0.0 0.0 0
M  V30 2 C -1.441 -0.4488 0.0 0
M  V30 3 C 0.874 -1.2048 0.0 0
M  V30 4 N -2.8821 0.0236 0.0 0
M  V30 5 C -1.4528 -1.9371 0.0 0
M  V30 6 C 2.3624 -1.193 0.0 0
M  V30 7 C -0.0236 -2.4096 0.0 0
M  V30 8 N -3.7798 -1.1812 0.0 0
M  V30 9 C -3.3546 1.4646 0.0 0
M  V30 10 C -2.8939 -2.386 0.0 0
M  V30 11 O 3.0947 0.1181 0.0 0
M  V30 12 N 3.0947 -2.4805 0.0 0
M  V30 13 C -3.3664 -3.8034 0.0 0
M  V30 END ATOM
M  V30 BEGIN BOND
M  V30 1 1 1 2
M  V30 2 1 1 3
M  V30 3 1 2 4
M  V30 4 2 2 5
M  V30 5 1 3 6
M  V30 6 2 3 7
M  V30 7 1 4 8
M  V30 8 1 4 9
M  V30 9 1 5 10
M  V30 10 2 6 11
M  V30 11 1 6 12
M  V30 12 1 10 13
M  V30 13 1 5 7
M  V30 14 2 8 10
M  V30 END BOND
M  V30 END CTAB
M  END
>  <Structure No>
94

>  <Catalog ID>
Z229615464

>  <MW (desalted)>
195.242

>  <ClogP>
0.605

>  <HBD>
1

>  <TPSA>
60.910

>  <RotBonds>
1

>  <Target>
Serine/threonine-protein kinase Chk1

>  <fromRegid>
CHEMBL1986588

>  <Similarity>
1.0

$$$$
Compound 95
Actelion Java MolfileCreator 2.0

  0  0  0  0  0  0              0 V3000
M  V30 BEGIN CTAB
M  V30 COUNTS 13 14 0 0 0
M  V30 BEGIN ATOM
M  V30 1 O 0.0 0.0 0.0 0
M  V30 2 C -1.3059 0.7647 0.0 0
M  V30 3 N -2.6118 0.0235 0.0 0
M  V30 4 C -1.3176 2.2706 0.0 0
M  V30 5 C -0.0352 3.0353 0.0 0
M  V30 6 C -2.6235 3.0353 0.0 0
M  V30 7 N 1.247 2.2941 0.0 0
M  V30 8 C -0.047 4.5412 0.0 0
M  V30 9 C -2.6353 4.5412 0.0 0
M  V30 10 C 2.5294 3.0588 0.0 0
M  V30 11 C 1.2353 5.3059 0.0 0
M  V30 12 C -1.3529 5.3059 0.0 0
M  V30 13 C 2.5176 4.5647 0.0 0
M  V30 END ATOM
M  V30 BEGIN BOND
M  V30 1 2 1 2
M  V30 2 1 2 3
M  V30 3 1 2 4
M  V30 4 1 4 5
M  V30 5 2 4 6
M  V30 6 2 5 7
M  V30 7 1 5 8
M  V30 8 1 6 9
M  V30 9 1 7 10
M  V30 10 2 8 11
M  V30 11 1 8 12
M  V30 12 2 10 13
M  V30 13 2 9 12
M  V30 14 1 11 13
M  V30 END BOND
M  V30 END CTAB
M  END
>  <Structure No>
95

>  <Catalog ID>
Z62734446

>  <MW (desalted)>
172.183

>  <ClogP>
1.019

>  <HBD>
1

>  <TPSA>
55.980

>  <RotBonds>
1

>  <Target>
Poly [ADP-ribose] polymerase-1

>  <fromRegid>
CHEMBL502330

>  <Similarity>
1.0

$$$$
Compound 96
Actelion Java MolfileCreator 2.0

  0  0  0  0  0  0              0 V3000
M  V30 BEGIN CTAB
M  V30 COUNTS 13 14 0 0 0
M  V30 BEGIN ATOM
M  V30 1 O 0.0 0.0 0.0 0
M  V30 2 C -0.0117 1.5082 0.0 0
M  V30 3 N -1.3196 2.2741 0.0 0
M  V30 4 C 1.2725 2.2741 0.0 0
M  V30 5 C -1.3314 3.7823 0.0 0
M  V30 6 C -2.6275 1.5317 0.0 0
M  V30 7 C 1.2607 3.7823 0.0 0
M  V30 8 C 2.5568 1.5317 0.0 0
M  V30 9 N -0.0471 4.5482 0.0 0
M  V30 10 C 2.5451 4.5482 0.0 0
M  V30 11 C 3.8412 2.2976 0.0 0
M  V30 12 C 3.8294 3.8058 0.0 0
M  V30 13 N 5.1255 1.5553 0.0 0
M  V30 END ATOM
M  V30 BEGIN BOND
M  V30 1 2 1 2
M  V30 2 1 2 3
M  V30 3 1 2 4
M  V30 4 1 3 5
M  V30 5 1 3 6
M  V30 6 2 4 7
M  V30 7 1 4 8
M  V30 8 2 5 9
M  V30 9 1 7 10
M  V30 10 2 8 11
M  V30 11 2 10 12
M  V30 12 1 11 13
M  V30 13 1 7 9
M  V30 14 1 11 12
M  V30 END BOND
M  V30 END CTAB
M  END
>  <Structure No>
96

>  <Catalog ID>
Z57474223

>  <MW (desalted)>
175.187

>  <ClogP>
0.121

>  <HBD>
1

>  <TPSA>
58.690

>  <RotBonds>
0

>  <Target>
Poly [ADP-ribose] polymerase-1

>  <fromRegid>
CHEMBL1949848

>  <Similarity>
0.9

$$$$
Compound 97
Actelion Java MolfileCreator 2.0

  0  0  0  0  0  0              0 V3000
M  V30 BEGIN CTAB
M  V30 COUNTS 13 14 0 0 0
M  V30 BEGIN ATOM
M  V30 1 O 0.0 0.0 0.0 0
M  V30 2 C -1.0135 1.1195 0.0 0
M  V30 3 N -2.4866 0.8249 0.0 0
M  V30 4 C -0.5656 2.5573 0.0 0
M  V30 5 C -2.958 -0.5892 0.0 0
M  V30 6 C 0.8485 3.0288 0.0 0
M  V30 7 C -1.4613 3.783 0.0 0
M  V30 8 C 0.8367 4.5373 0.0 0
M  V30 9 C 2.1331 2.2863 0.0 0
M  V30 10 N -0.5892 5.0087 0.0 0
M  V30 11 C 2.1213 5.3033 0.0 0
M  V30 12 C 3.4177 3.0523 0.0 0
M  V30 13 C 3.4059 4.5608 0.0 0
M  V30 END ATOM
M  V30 BEGIN BOND
M  V30 1 2 1 2
M  V30 2 1 2 3
M  V30 3 1 2 4
M  V30 4 1 3 5
M  V30 5 1 4 6
M  V30 6 2 4 7
M  V30 7 2 6 8
M  V30 8 1 6 9
M  V30 9 1 7 10
M  V30 10 1 8 11
M  V30 11 2 9 12
M  V30 12 2 11 13
M  V30 13 1 8 10
M  V30 14 1 12 13
M  V30 END BOND
M  V30 END CTAB
M  END
>  <Structure No>
97

>  <Catalog ID>
Z234895483

>  <MW (desalted)>
174.199

>  <ClogP>
1.107

>  <HBD>
2

>  <TPSA>
44.890

>  <RotBonds>
1

>  <Target>
Poly [ADP-ribose] polymerase-1

>  <fromRegid>
CHEMBL356104

>  <Similarity>
0.87

$$$$
Compound 98
Actelion Java MolfileCreator 2.0

  0  0  0  0  0  0              0 V3000
M  V30 BEGIN CTAB
M  V30 COUNTS 13 14 0 0 0
M  V30 BEGIN ATOM
M  V30 1 O 0.0 0.0 0.0 0
M  V30 2 C -0.8911 1.2194 0.0 0
M  V30 3 N -2.392 1.2311 0.0 0
M  V30 4 C -0.4455 2.6499 0.0 0
M  V30 5 N -2.861 2.6616 0.0 0
M  V30 6 C -1.665 3.5411 0.0 0
M  V30 7 C -4.2915 3.1307 0.0 0
M  V30 8 N -1.6767 5.0419 0.0 0
M  V30 9 N -4.6081 4.5964 0.0 0
M  V30 10 C -5.4054 2.1457 0.0 0
M  V30 11 C -6.0386 5.0654 0.0 0
M  V30 12 C -6.8359 2.6147 0.0 0
M  V30 13 C -7.1525 4.0804 0.0 0
M  V30 END ATOM
M  V30 BEGIN BOND
M  V30 1 1 1 2
M  V30 2 2 2 3
M  V30 3 1 2 4
M  V30 4 1 3 5
M  V30 5 2 4 6
M  V30 6 1 5 7
M  V30 7 1 6 8
M  V30 8 2 7 9
M  V30 9 1 7 10
M  V30 10 1 9 11
M  V30 11 2 10 12
M  V30 12 2 11 13
M  V30 13 1 5 6
M  V30 14 1 12 13
M  V30 END BOND
M  V30 END CTAB
M  END
>  <Structure No>
98

>  <Catalog ID>
Z801579710

>  <MW (desalted)>
176.175

>  <ClogP>
-0.345

>  <HBD>
2

>  <TPSA>
76.960

>  <RotBonds>
1

>  <Target>
Serine/threonine-protein kinase Chk1

>  <fromRegid>
CHEMBL1995765

>  <Similarity>
1.0

$$$$
Compound 99
Actelion Java MolfileCreator 2.0

  0  0  0  0  0  0              0 V3000
M  V30 BEGIN CTAB
M  V30 COUNTS 13 14 0 0 0
M  V30 BEGIN ATOM
M  V30 1 Cl 0.0 0.0 0.0 0
M  V30 2 C -0.0117 1.5081 0.0 0
M  V30 3 C -1.3196 2.2739 0.0 0
M  V30 4 C 1.2724 2.2739 0.0 0
M  V30 5 Cl -2.6274 1.5317 0.0 0
M  V30 6 C -1.3314 3.7821 0.0 0
M  V30 7 C 1.2607 3.7821 0.0 0
M  V30 8 C 2.5567 1.5317 0.0 0
M  V30 9 C -0.0471 4.5362 0.0 0
M  V30 10 C 2.5449 4.5362 0.0 0
M  V30 11 C 3.841 2.2975 0.0 0
M  V30 12 O 2.5332 6.0443 0.0 0
M  V30 13 N 3.8292 3.8056 0.0 0
M  V30 END ATOM
M  V30 BEGIN BOND
M  V30 1 1 1 2
M  V30 2 2 2 3
M  V30 3 1 2 4
M  V30 4 1 3 5
M  V30 5 1 3 6
M  V30 6 2 4 7
M  V30 7 1 4 8
M  V30 8 2 6 9
M  V30 9 1 7 10
M  V30 10 1 8 11
M  V30 11 2 10 12
M  V30 12 1 10 13
M  V30 13 1 7 9
M  V30 14 1 11 13
M  V30 END BOND
M  V30 END CTAB
M  END
>  <Structure No>
99

>  <Catalog ID>
Z994559888

>  <MW (desalted)>
216.064

>  <ClogP>
2.574

>  <HBD>
1

>  <TPSA>
29.100

>  <RotBonds>
0

>  <Target>
Poly [ADP-ribose] polymerase-1

>  <fromRegid>
CHEMBL3416132

>  <Similarity>
0.87

$$$$
Compound 100
Actelion Java MolfileCreator 2.0

  0  0  0  0  0  0              0 V3000
M  V30 BEGIN CTAB
M  V30 COUNTS 13 14 0 0 0
M  V30 BEGIN ATOM
M  V30 1 O 0.0 0.0 0.0 0
M  V30 2 C -0.0117 1.5081 0.0 0
M  V30 3 N -1.3196 2.2739 0.0 0
M  V30 4 C 1.2724 2.2739 0.0 0
M  V30 5 C -1.3314 3.7821 0.0 0
M  V30 6 C -2.6274 1.5317 0.0 0
M  V30 7 C 1.2607 3.7821 0.0 0
M  V30 8 C 2.5567 1.5317 0.0 0
M  V30 9 C -0.0471 4.5362 0.0 0
M  V30 10 C 2.5449 4.5362 0.0 0
M  V30 11 C 3.841 2.2975 0.0 0
M  V30 12 N 2.5332 6.0443 0.0 0
M  V30 13 C 3.8292 3.8056 0.0 0
M  V30 END ATOM
M  V30 BEGIN BOND
M  V30 1 2 1 2
M  V30 2 1 2 3
M  V30 3 1 2 4
M  V30 4 1 3 5
M  V30 5 1 3 6
M  V30 6 2 4 7
M  V30 7 1 4 8
M  V30 8 1 5 9
M  V30 9 1 7 10
M  V30 10 2 8 11
M  V30 11 1 10 12
M  V30 12 2 10 13
M  V30 13 1 7 9
M  V30 14 1 11 13
M  V30 END BOND
M  V30 END CTAB
M  END
>  <Structure No>
100

>  <Catalog ID>
Z1262669737

>  <MW (desalted)>
176.215

>  <ClogP>
0.145

>  <HBD>
1

>  <TPSA>
46.330

>  <RotBonds>
0

>  <Target>
Poly [ADP-ribose] polymerase-1

>  <fromRegid>
CHEMBL594759

>  <Similarity>
0.91

$$$$
Compound 101
Actelion Java MolfileCreator 2.0

  0  0  0  0  0  0              0 V3000
M  V30 BEGIN CTAB
M  V30 COUNTS 13 14 0 0 0
M  V30 BEGIN ATOM
M  V30 1 F 0.0 0.0 0.0 0
M  V30 2 C 1.2941 -0.7479 0.0 0
M  V30 3 C 1.2822 -2.2439 0.0 0
M  V30 4 C 2.5882 0.0237 0.0 0
M  V30 5 F -0.0356 -2.9919 0.0 0
M  V30 6 C 2.5763 -2.9919 0.0 0
M  V30 7 C 3.8823 -0.7242 0.0 0
M  V30 8 C 3.8704 -2.2201 0.0 0
M  V30 9 N 5.1764 0.0474 0.0 0
M  V30 10 C 5.1646 -2.9681 0.0 0
M  V30 11 C 6.4705 -0.7004 0.0 0
M  V30 12 O 5.1527 -4.4641 0.0 0
M  V30 13 N 6.4587 -2.1964 0.0 0
M  V30 END ATOM
M  V30 BEGIN BOND
M  V30 1 1 1 2
M  V30 2 2 2 3
M  V30 3 1 2 4
M  V30 4 1 3 5
M  V30 5 1 3 6
M  V30 6 2 4 7
M  V30 7 2 6 8
M  V30 8 1 7 9
M  V30 9 1 8 10
M  V30 10 2 9 11
M  V30 11 2 10 12
M  V30 12 1 10 13
M  V30 13 1 7 8
M  V30 14 1 11 13
M  V30 END BOND
M  V30 END CTAB
M  END
>  <Structure No>
101

>  <Catalog ID>
Z1171978537

>  <MW (desalted)>
182.127

>  <ClogP>
0.599

>  <HBD>
1

>  <TPSA>
41.460

>  <RotBonds>
0

>  <Target>
Poly [ADP-ribose] polymerase-1

>  <fromRegid>
CHEMBL1949843

>  <Similarity>
0.92

$$$$
Compound 102
Actelion Java MolfileCreator 2.0

  0  0  0  0  0  0              0 V3000
M  V30 BEGIN CTAB
M  V30 COUNTS 13 14 0 0 0
M  V30 BEGIN ATOM
M  V30 1 O 0.0 0.0 0.0 0
M  V30 2 C 0.3194 -1.4553 0.0 0
M  V30 3 N 1.7748 -1.7748 0.0 0
M  V30 4 C -0.8637 -2.3782 0.0 0
M  V30 5 C 2.4137 -3.1119 0.0 0
M  V30 6 C -0.8755 -3.8691 0.0 0
M  V30 7 C -2.1771 -1.6091 0.0 0
M  V30 8 C 1.7511 -4.4489 0.0 0
M  V30 9 C -2.1889 -4.6146 0.0 0
M  V30 10 C 0.2839 -4.792 0.0 0
M  V30 11 C -3.4905 -2.3546 0.0 0
M  V30 12 C -3.5023 -3.8455 0.0 0
M  V30 13 O -4.8157 -4.5909 0.0 0
M  V30 END ATOM
M  V30 BEGIN BOND
M  V30 1 2 1 2
M  V30 2 1 2 3
M  V30 3 1 2 4
M  V30 4 1 3 5
M  V30 5 2 4 6
M  V30 6 1 4 7
M  V30 7 1 5 8
M  V30 8 1 6 9
M  V30 9 1 6 10
M  V30 10 2 7 11
M  V30 11 2 9 12
M  V30 12 1 12 13
M  V30 13 1 8 10
M  V30 14 1 11 12
M  V30 END BOND
M  V30 END CTAB
M  END
>  <Structure No>
102

>  <Catalog ID>
Z1198174116

>  <MW (desalted)>
177.200

>  <ClogP>
1.077

>  <HBD>
2

>  <TPSA>
49.330

>  <RotBonds>
0

>  <Target>
Poly [ADP-ribose] polymerase-1

>  <fromRegid>
CHEMBL3629676

>  <Similarity>
0.87

$$$$
Compound 103
Actelion Java MolfileCreator 2.0

  0  0  0  0  0  0              0 V3000
M  V30 BEGIN CTAB
M  V30 COUNTS 13 14 0 0 0
M  V30 BEGIN ATOM
M  V30 1 O 0.0 0.0 0.0 0
M  V30 2 C -0.0118 -1.4904 0.0 0
M  V30 3 N 1.2775 -2.2239 0.0 0
M  V30 4 C -1.3248 -2.2239 0.0 0
M  V30 5 C 1.2657 -3.7143 0.0 0
M  V30 6 C -1.3367 -3.7143 0.0 0
M  V30 7 C -2.6379 -1.4668 0.0 0
M  V30 8 N -0.0473 -4.4596 0.0 0
M  V30 9 C -2.6497 -4.4596 0.0 0
M  V30 10 C -3.9509 -2.2002 0.0 0
M  V30 11 C -3.9628 -3.6907 0.0 0
M  V30 12 O -5.2758 -4.4359 0.0 0
M  V30 13 C -5.2876 -5.9264 0.0 0
M  V30 END ATOM
M  V30 BEGIN BOND
M  V30 1 2 1 2
M  V30 2 1 2 3
M  V30 3 1 2 4
M  V30 4 1 3 5
M  V30 5 2 4 6
M  V30 6 1 4 7
M  V30 7 2 5 8
M  V30 8 1 6 9
M  V30 9 2 7 10
M  V30 10 2 9 11
M  V30 11 1 11 12
M  V30 12 1 12 13
M  V30 13 1 6 8
M  V30 14 1 10 11
M  V30 END BOND
M  V30 END CTAB
M  END
>  <Structure No>
103

>  <Catalog ID>
Z1198166040

>  <MW (desalted)>
176.172

>  <ClogP>
0.662

>  <HBD>
1

>  <TPSA>
50.690

>  <RotBonds>
1

>  <Target>
Poly [ADP-ribose] polymerase-1

>  <fromRegid>
CHEMBL1949846

>  <Similarity>
0.89

$$$$
Compound 104
Actelion Java MolfileCreator 2.0

  0  0  0  0  0  0              0 V3000
M  V30 BEGIN CTAB
M  V30 COUNTS 13 14 0 0 0
M  V30 BEGIN ATOM
M  V30 1 Cl 0.0 0.0 0.0 0
M  V30 2 C -0.0117 1.5014 0.0 0
M  V30 3 C -1.3137 2.2639 0.0 0
M  V30 4 C 1.2668 2.2639 0.0 0
M  V30 5 C -2.6158 1.5249 0.0 0
M  V30 6 C -1.3255 3.7653 0.0 0
M  V30 7 C 1.2551 3.7653 0.0 0
M  V30 8 O -2.6275 0.0469 0.0 0
M  V30 9 N -3.9178 2.2873 0.0 0
M  V30 10 N -2.6275 4.5278 0.0 0
M  V30 11 C -0.0469 4.5278 0.0 0
M  V30 12 C -3.9295 3.7888 0.0 0
M  V30 13 C -5.2316 4.5512 0.0 0
M  V30 END ATOM
M  V30 BEGIN BOND
M  V30 1 1 1 2
M  V30 2 2 2 3
M  V30 3 1 2 4
M  V30 4 1 3 5
M  V30 5 1 3 6
M  V30 6 2 4 7
M  V30 7 2 5 8
M  V30 8 1 5 9
M  V30 9 1 6 10
M  V30 10 2 6 11
M  V30 11 1 9 12
M  V30 12 1 12 13
M  V30 13 1 7 11
M  V30 14 2 10 12
M  V30 END BOND
M  V30 END CTAB
M  END
>  <Structure No>
104

>  <Catalog ID>
Z1198279517

>  <MW (desalted)>
194.618

>  <ClogP>
1.575

>  <HBD>
1

>  <TPSA>
41.460

>  <RotBonds>
0

>  <Target>
Poly [ADP-ribose] polymerase-1

>  <fromRegid>
CHEMBL1949841

>  <Similarity>
0.86

$$$$
Compound 105
Actelion Java MolfileCreator 2.0

  0  0  0  0  0  0              0 V3000
M  V30 BEGIN CTAB
M  V30 COUNTS 13 14 0 0 0
M  V30 BEGIN ATOM
M  V30 1 Cl 0.0 0.0 0.0 0
M  V30 2 C 1.2895 0.7689 0.0 0
M  V30 3 C 2.579 0.0236 0.0 0
M  V30 4 C 1.2777 2.2833 0.0 0
M  V30 5 C 3.8686 0.7926 0.0 0
M  V30 6 C 2.5672 3.0522 0.0 0
M  V30 7 C 5.1581 0.0473 0.0 0
M  V30 8 C 3.8567 2.3069 0.0 0
M  V30 9 O 5.1463 -1.4433 0.0 0
M  V30 10 N 6.4476 0.8163 0.0 0
M  V30 11 N 5.1463 3.0759 0.0 0
M  V30 12 C 6.4358 2.3306 0.0 0
M  V30 13 O 7.7253 3.0996 0.0 0
M  V30 END ATOM
M  V30 BEGIN BOND
M  V30 1 1 1 2
M  V30 2 2 2 3
M  V30 3 1 2 4
M  V30 4 1 3 5
M  V30 5 2 4 6
M  V30 6 1 5 7
M  V30 7 2 5 8
M  V30 8 2 7 9
M  V30 9 1 7 10
M  V30 10 1 8 11
M  V30 11 1 10 12
M  V30 12 2 12 13
M  V30 13 1 6 8
M  V30 14 1 11 12
M  V30 END BOND
M  V30 END CTAB
M  END
>  <Structure No>
105

>  <Catalog ID>
Z1201617625

>  <MW (desalted)>
196.591

>  <ClogP>
1.503

>  <HBD>
2

>  <TPSA>
58.200

>  <RotBonds>
0

>  <Target>
Poly [ADP-ribose] polymerase-1

>  <fromRegid>
CHEMBL421646

>  <Similarity>
0.88

$$$$
Compound 106
Actelion Java MolfileCreator 2.0

  0  0  0  0  0  0              0 V3000
M  V30 BEGIN CTAB
M  V30 COUNTS 13 13 0 0 0
M  V30 BEGIN ATOM
M  V30 1 O 0.0 0.0 0.0 0
M  V30 2 C 1.2927 -0.7353 0.0 0
M  V30 3 N 2.5854 0.0237 0.0 0
M  V30 4 C 1.2808 -2.2296 0.0 0
M  V30 5 C 2.5736 1.5418 0.0 0
M  V30 6 C -0.0355 -2.965 0.0 0
M  V30 7 C 2.5736 -2.965 0.0 0
M  V30 8 C -0.0474 -4.4593 0.0 0
M  V30 9 C 2.5617 -4.4593 0.0 0
M  V30 10 N -1.3639 -5.1947 0.0 0
M  V30 11 C 1.2453 -5.1947 0.0 0
M  V30 12 C -1.3757 -6.689 0.0 0
M  V30 13 C -2.6803 -4.4356 0.0 0
M  V30 END ATOM
M  V30 BEGIN BOND
M  V30 1 2 1 2
M  V30 2 1 2 3
M  V30 3 1 2 4
M  V30 4 1 3 5
M  V30 5 2 4 6
M  V30 6 1 4 7
M  V30 7 1 6 8
M  V30 8 2 7 9
M  V30 9 1 8 10
M  V30 10 2 8 11
M  V30 11 1 10 12
M  V30 12 1 10 13
M  V30 13 1 9 11
M  V30 END BOND
M  V30 END CTAB
M  END
>  <Structure No>
106

>  <Catalog ID>
Z32016575

>  <MW (desalted)>
178.231

>  <ClogP>
1.221

>  <HBD>
1

>  <TPSA>
32.340

>  <RotBonds>
2

>  <Target>
Poly [ADP-ribose] polymerase-1

>  <fromRegid>
CHEMBL123205

>  <Similarity>
0.9

$$$$
Compound 107
Actelion Java MolfileCreator 2.0

  0  0  0  0  0  0              0 V3000
M  V30 BEGIN CTAB
M  V30 COUNTS 14 14 0 0 0
M  V30 BEGIN ATOM
M  V30 1 Cl 0.0 0.0 0.0 0
M  V30 2 O 9.2954 -2.3473 0.0 0
M  V30 3 C 9.2837 -0.845 0.0 0
M  V30 4 N 10.563 -0.0821 0.0 0
M  V30 5 C 7.9809 -0.0821 0.0 0
M  V30 6 C 10.5512 1.4201 0.0 0
M  V30 7 C 7.9692 1.4201 0.0 0
M  V30 8 C 6.6781 -0.8215 0.0 0
M  V30 9 C 9.2485 2.183 0.0 0
M  V30 10 C 6.6664 2.183 0.0 0
M  V30 11 C 5.3754 -0.0586 0.0 0
M  V30 12 C 5.3636 1.4436 0.0 0
M  V30 13 C 4.0726 -0.798 0.0 0
M  V30 14 N 4.0608 -2.2769 0.0 0
M  V30 END ATOM
M  V30 BEGIN BOND
M  V30 1 2 2 3
M  V30 2 1 3 4
M  V30 3 1 3 5
M  V30 4 1 4 6
M  V30 5 2 5 7
M  V30 6 1 5 8
M  V30 7 1 6 9
M  V30 8 1 7 10
M  V30 9 2 8 11
M  V30 10 2 10 12
M  V30 11 1 11 13
M  V30 12 1 13 14
M  V30 13 1 7 9
M  V30 14 1 11 12
M  V30 END BOND
M  V30 END CTAB
M  END
>  <Structure No>
107

>  <Catalog ID>
Z1881583655

>  <MW (desalted)>
176.215

>  <ClogP>
-0.052

>  <HBD>
2

>  <TPSA>
55.120

>  <RotBonds>
1

>  <Target>
Poly [ADP-ribose] polymerase-1

>  <fromRegid>
CHEMBL1688212

>  <Similarity>
0.93

$$$$
Compound 108
Actelion Java MolfileCreator 2.0

  0  0  0  0  0  0              0 V3000
M  V30 BEGIN CTAB
M  V30 COUNTS 13 14 0 0 0
M  V30 BEGIN ATOM
M  V30 1 F 0.0 0.0 0.0 0
M  V30 2 C -0.0118 -1.4963 0.0 0
M  V30 3 C 1.2825 -2.2326 0.0 0
M  V30 4 C -1.33 -2.2326 0.0 0
M  V30 5 C 1.2706 -3.7289 0.0 0
M  V30 6 C 2.577 -1.4725 0.0 0
M  V30 7 C -1.3419 -3.7289 0.0 0
M  V30 8 C 2.5651 -4.4771 0.0 0
M  V30 9 C -0.0475 -4.4771 0.0 0
M  V30 10 C 3.8714 -2.2088 0.0 0
M  V30 11 F -2.6601 -4.4771 0.0 0
M  V30 12 O 2.5532 -5.9734 0.0 0
M  V30 13 N 3.8595 -3.7051 0.0 0
M  V30 END ATOM
M  V30 BEGIN BOND
M  V30 1 1 1 2
M  V30 2 2 2 3
M  V30 3 1 2 4
M  V30 4 1 3 5
M  V30 5 1 3 6
M  V30 6 2 4 7
M  V30 7 1 5 8
M  V30 8 2 5 9
M  V30 9 1 6 10
M  V30 10 1 7 11
M  V30 11 2 8 12
M  V30 12 1 8 13
M  V30 13 1 7 9
M  V30 14 1 10 13
M  V30 END BOND
M  V30 END CTAB
M  END
>  <Structure No>
108

>  <Catalog ID>
Z1218937025

>  <MW (desalted)>
183.155

>  <ClogP>
1.554

>  <HBD>
1

>  <TPSA>
29.100

>  <RotBonds>
0

>  <Target>
Poly [ADP-ribose] polymerase-1

>  <fromRegid>
CHEMBL3629672

>  <Similarity>
0.9

$$$$
Compound 109
Actelion Java MolfileCreator 2.0

  0  0  0  0  0  0              0 V3000
M  V30 BEGIN CTAB
M  V30 COUNTS 13 14 0 0 0
M  V30 BEGIN ATOM
M  V30 1 O 0.0 0.0 0.0 0
M  V30 2 C -0.0118 -1.4972 0.0 0
M  V30 3 N -1.3309 -2.234 0.0 0
M  V30 4 C 1.2833 -2.234 0.0 0
M  V30 5 C -1.3427 -3.7313 0.0 0
M  V30 6 C 1.2715 -3.7313 0.0 0
M  V30 7 C 2.5786 -1.4735 0.0 0
M  V30 8 C -0.0475 -4.4799 0.0 0
M  V30 9 C 2.5667 -4.4799 0.0 0
M  V30 10 C 3.8739 -2.2102 0.0 0
M  V30 11 C -1.0338 -5.6207 0.0 0
M  V30 12 C 0.915 -5.6207 0.0 0
M  V30 13 C 3.862 -3.7075 0.0 0
M  V30 END ATOM
M  V30 BEGIN BOND
M  V30 1 2 1 2
M  V30 2 1 2 3
M  V30 3 1 2 4
M  V30 4 1 3 5
M  V30 5 2 4 6
M  V30 6 1 4 7
M  V30 7 1 5 8
M  V30 8 1 6 9
M  V30 9 2 7 10
M  V30 10 1 8 11
M  V30 11 1 8 12
M  V30 12 2 9 13
M  V30 13 1 6 8
M  V30 14 1 10 13
M  V30 END BOND
M  V30 END CTAB
M  END
>  <Structure No>
109

>  <Catalog ID>
Z1251360842

>  <MW (desalted)>
175.227

>  <ClogP>
2.034

>  <HBD>
1

>  <TPSA>
29.100

>  <RotBonds>
0

>  <Target>
Poly [ADP-ribose] polymerase-1

>  <fromRegid>
CHEMBL1688212

>  <Similarity>
0.87

$$$$
Compound 110
Actelion Java MolfileCreator 2.0

  0  0  0  0  0  0              0 V3000
M  V30 BEGIN CTAB
M  V30 COUNTS 13 14 0 0 0
M  V30 BEGIN ATOM
M  V30 1 N 0.0 0.0 0.0 0
M  V30 2 C -0.0117 -1.4861 0.0 0
M  V30 3 C -1.3092 0.7548 0.0 0
M  V30 4 N -1.321 -2.2174 0.0 0
M  V30 5 N 1.2738 -2.2174 0.0 0
M  V30 6 N -1.321 2.2645 0.0 0
M  V30 7 C -2.6184 0.0235 0.0 0
M  V30 8 C -2.6302 -1.4625 0.0 0
M  V30 9 C -2.6302 3.0194 0.0 0
M  V30 10 C -0.0353 3.0194 0.0 0
M  V30 11 N -4.0573 0.4953 0.0 0
M  V30 12 N -4.0691 -1.9107 0.0 0
M  V30 13 C -4.9537 -0.7076 0.0 0
M  V30 END ATOM
M  V30 BEGIN BOND
M  V30 1 2 1 2
M  V30 2 1 1 3
M  V30 3 1 2 4
M  V30 4 1 2 5
M  V30 5 1 3 6
M  V30 6 2 3 7
M  V30 7 2 4 8
M  V30 8 1 6 9
M  V30 9 1 6 10
M  V30 10 1 7 11
M  V30 11 1 8 12
M  V30 12 2 11 13
M  V30 13 1 7 8
M  V30 14 1 12 13
M  V30 END BOND
M  V30 END CTAB
M  END
>  <Structure No>
110

>  <Catalog ID>
Z1255446657

>  <MW (desalted)>
178.195

>  <ClogP>
0.809

>  <HBD>
2

>  <TPSA>
83.720

>  <RotBonds>
1

>  <Target>
Serine/threonine-protein kinase Chk2

>  <fromRegid>
CHEMBL407391

>  <Similarity>
0.87

$$$$
Compound 111
Actelion Java MolfileCreator 2.0

  0  0  0  0  0  0              0 V3000
M  V30 BEGIN CTAB
M  V30 COUNTS 13 14 0 0 0
M  V30 BEGIN ATOM
M  V30 1 Cl 0.0 0.0 0.0 0
M  V30 2 C -1.3012 0.762 0.0 0
M  V30 3 C -2.6025 0.0234 0.0 0
M  V30 4 C -1.3129 2.2625 0.0 0
M  V30 5 C -3.9037 0.7854 0.0 0
M  V30 6 C -2.6142 3.0245 0.0 0
M  V30 7 C -5.205 0.0468 0.0 0
M  V30 8 C -3.9155 2.286 0.0 0
M  V30 9 O -5.2167 -1.4302 0.0 0
M  V30 10 N -6.5063 0.8088 0.0 0
M  V30 11 N -5.2167 3.048 0.0 0
M  V30 12 C -6.518 2.3094 0.0 0
M  V30 13 C -7.8075 0.0703 0.0 0
M  V30 END ATOM
M  V30 BEGIN BOND
M  V30 1 1 1 2
M  V30 2 2 2 3
M  V30 3 1 2 4
M  V30 4 1 3 5
M  V30 5 2 4 6
M  V30 6 1 5 7
M  V30 7 2 5 8
M  V30 8 2 7 9
M  V30 9 1 7 10
M  V30 10 1 8 11
M  V30 11 1 10 12
M  V30 12 1 10 13
M  V30 13 1 6 8
M  V30 14 2 11 12
M  V30 END BOND
M  V30 END CTAB
M  END
>  <Structure No>
111

>  <Catalog ID>
Z335825800

>  <MW (desalted)>
194.618

>  <ClogP>
1.373

>  <HBD>
0

>  <TPSA>
32.670

>  <RotBonds>
0

>  <Target>
Poly [ADP-ribose] polymerase-1

>  <fromRegid>
CHEMBL1949844

>  <Similarity>
0.9

$$$$
Compound 112
Actelion Java MolfileCreator 2.0

  0  0  0  0  0  0              0 V3000
M  V30 BEGIN CTAB
M  V30 COUNTS 13 14 0 0 0
M  V30 BEGIN ATOM
M  V30 1 F 0.0 0.0 0.0 0
M  V30 2 C 1.2886 0.7684 0.0 0
M  V30 3 C 1.2768 2.2817 0.0 0
M  V30 4 C 2.5773 0.0236 0.0 0
M  V30 5 C 2.5654 3.0383 0.0 0
M  V30 6 C -0.0354 3.0383 0.0 0
M  V30 7 C 3.8659 0.7921 0.0 0
M  V30 8 C 3.8541 2.3053 0.0 0
M  V30 9 N 5.1546 0.0472 0.0 0
M  V30 10 C 5.1428 3.062 0.0 0
M  V30 11 C 6.4432 0.8157 0.0 0
M  V30 12 O 5.1309 4.5753 0.0 0
M  V30 13 N 6.4314 2.329 0.0 0
M  V30 END ATOM
M  V30 BEGIN BOND
M  V30 1 1 1 2
M  V30 2 2 2 3
M  V30 3 1 2 4
M  V30 4 1 3 5
M  V30 5 1 3 6
M  V30 6 2 4 7
M  V30 7 2 5 8
M  V30 8 1 7 9
M  V30 9 1 8 10
M  V30 10 2 9 11
M  V30 11 2 10 12
M  V30 12 1 10 13
M  V30 13 1 7 8
M  V30 14 1 11 13
M  V30 END BOND
M  V30 END CTAB
M  END
>  <Structure No>
112

>  <Catalog ID>
Z1255463756

>  <MW (desalted)>
178.163

>  <ClogP>
1.005

>  <HBD>
1

>  <TPSA>
41.460

>  <RotBonds>
0

>  <Target>
Poly [ADP-ribose] polymerase-1

>  <fromRegid>
CHEMBL1949840

>  <Similarity>
0.88

$$$$
Compound 113
Actelion Java MolfileCreator 2.0

  0  0  0  0  0  0              0 V3000
M  V30 BEGIN CTAB
M  V30 COUNTS 13 14 0 0 0
M  V30 BEGIN ATOM
M  V30 1 O 0.0 0.0 0.0 0
M  V30 2 C 1.2904 -0.7339 0.0 0
M  V30 3 N 2.5808 0.0236 0.0 0
M  V30 4 C 1.2785 -2.2256 0.0 0
M  V30 5 C -0.0355 -2.9596 0.0 0
M  V30 6 C 2.5689 -2.9596 0.0 0
M  V30 7 N -1.4798 -2.486 0.0 0
M  V30 8 C -0.0473 -4.4513 0.0 0
M  V30 9 C 2.5571 -4.4513 0.0 0
M  V30 10 C -2.3795 -3.6936 0.0 0
M  V30 11 N -1.4916 -4.9011 0.0 0
M  V30 12 C 1.243 -5.1971 0.0 0
M  V30 13 C -3.8948 -3.6817 0.0 0
M  V30 END ATOM
M  V30 BEGIN BOND
M  V30 1 2 1 2
M  V30 2 1 2 3
M  V30 3 1 2 4
M  V30 4 2 4 5
M  V30 5 1 4 6
M  V30 6 1 5 7
M  V30 7 1 5 8
M  V30 8 2 6 9
M  V30 9 2 7 10
M  V30 10 1 8 11
M  V30 11 2 8 12
M  V30 12 1 10 13
M  V30 13 1 9 12
M  V30 14 1 10 11
M  V30 END BOND
M  V30 END CTAB
M  END
>  <Structure No>
113

>  <Catalog ID>
Z1255403177

>  <MW (desalted)>
175.187

>  <ClogP>
0.841

>  <HBD>
2

>  <TPSA>
71.770

>  <RotBonds>
1

>  <Target>
Poly [ADP-ribose] polymerase-1

>  <fromRegid>
CHEMBL133694

>  <Similarity>
0.86

$$$$
Compound 114
Actelion Java MolfileCreator 2.0

  0  0  0  0  0  0              0 V3000
M  V30 BEGIN CTAB
M  V30 COUNTS 13 14 0 0 0
M  V30 BEGIN ATOM
M  V30 1 O 0.0 0.0 0.0 0
M  V30 2 C -0.0117 1.5079 0.0 0
M  V30 3 N -1.3194 2.2737 0.0 0
M  V30 4 C 1.2723 2.2737 0.0 0
M  V30 5 C -1.3312 3.7817 0.0 0
M  V30 6 C 1.2605 3.7817 0.0 0
M  V30 7 C 2.5564 1.5315 0.0 0
M  V30 8 N -0.0471 4.5474 0.0 0
M  V30 9 C 2.5447 4.5474 0.0 0
M  V30 10 C 3.8406 2.2972 0.0 0
M  V30 11 C 3.8288 3.8052 0.0 0
M  V30 12 C 5.1129 4.571 0.0 0
M  V30 13 N 6.397 5.3368 0.0 0
M  V30 END ATOM
M  V30 BEGIN BOND
M  V30 1 2 1 2
M  V30 2 1 2 3
M  V30 3 1 2 4
M  V30 4 1 3 5
M  V30 5 2 4 6
M  V30 6 1 4 7
M  V30 7 2 5 8
M  V30 8 1 6 9
M  V30 9 2 7 10
M  V30 10 2 9 11
M  V30 11 1 11 12
M  V30 12 3 12 13
M  V30 13 1 6 8
M  V30 14 1 10 11
M  V30 END BOND
M  V30 END CTAB
M  END
>  <Structure No>
114

>  <Catalog ID>
Z1675167200

>  <MW (desalted)>
171.156

>  <ClogP>
-0.127

>  <HBD>
1

>  <TPSA>
65.250

>  <RotBonds>
0

>  <Target>
Poly [ADP-ribose] polymerase-1

>  <fromRegid>
CHEMBL266540

>  <Similarity>
0.89

$$$$
Compound 115
Actelion Java MolfileCreator 2.0

  0  0  0  0  0  0              0 V3000
M  V30 BEGIN CTAB
M  V30 COUNTS 14 15 0 0 0
M  V30 BEGIN ATOM
M  V30 1 Cl 0.0 0.0 0.0 0
M  V30 2 N 7.7567 0.5675 0.0 0
M  V30 3 C 6.2432 0.5793 0.0 0
M  V30 4 C 8.206 -0.8513 0.0 0
M  V30 5 C 8.7499 1.6908 0.0 0
M  V30 6 C 5.7702 -0.8395 0.0 0
M  V30 7 C 5.2263 1.7026 0.0 0
M  V30 8 C 6.9763 -1.7263 0.0 0
M  V30 9 C 9.6604 -1.1469 0.0 0
M  V30 10 C 10.2043 1.3952 0.0 0
M  V30 11 C 4.2922 -1.1351 0.0 0
M  V30 12 C 3.7482 1.407 0.0 0
M  V30 13 N 10.6536 -0.0236 0.0 0
M  V30 14 C 3.2753 -0.0118 0.0 0
M  V30 END ATOM
M  V30 BEGIN BOND
M  V30 1 1 2 3
M  V30 2 1 2 4
M  V30 3 1 2 5
M  V30 4 2 3 6
M  V30 5 1 3 7
M  V30 6 2 4 8
M  V30 7 1 4 9
M  V30 8 1 5 10
M  V30 9 1 6 11
M  V30 10 2 7 12
M  V30 11 1 9 13
M  V30 12 2 11 14
M  V30 13 1 6 8
M  V30 14 1 10 13
M  V30 15 1 12 14
M  V30 END BOND
M  V30 END CTAB
M  END
>  <Structure No>
115

>  <Catalog ID>
Z2188172213

>  <MW (desalted)>
172.226

>  <ClogP>
1.831

>  <HBD>
1

>  <TPSA>
16.960

>  <RotBonds>
0

>  <Target>
Poly [ADP-ribose] polymerase-1

>  <fromRegid>
CHEMBL417002

>  <Similarity>
1.0

$$$$
Compound 116
Actelion Java MolfileCreator 2.0

  0  0  0  0  0  0              0 V3000
M  V30 BEGIN CTAB
M  V30 COUNTS 13 14 0 0 0
M  V30 BEGIN ATOM
M  V30 1 O 0.0 0.0 0.0 0
M  V30 2 C -0.0117 1.5078 0.0 0
M  V30 3 N -1.3193 2.2735 0.0 0
M  V30 4 C 1.2722 2.2735 0.0 0
M  V30 5 C -1.3311 3.7813 0.0 0
M  V30 6 C 1.2604 3.7813 0.0 0
M  V30 7 C 2.5562 1.5313 0.0 0
M  V30 8 C -0.0471 4.5352 0.0 0
M  V30 9 C 2.5444 4.5352 0.0 0
M  V30 10 C 3.8402 2.297 0.0 0
M  V30 11 C -0.0588 6.043 0.0 0
M  V30 12 C 3.8284 3.8049 0.0 0
M  V30 13 N -0.0706 7.5509 0.0 0
M  V30 END ATOM
M  V30 BEGIN BOND
M  V30 1 2 1 2
M  V30 2 1 2 3
M  V30 3 1 2 4
M  V30 4 1 3 5
M  V30 5 2 4 6
M  V30 6 1 4 7
M  V30 7 2 5 8
M  V30 8 1 6 9
M  V30 9 2 7 10
M  V30 10 1 8 11
M  V30 11 2 9 12
M  V30 12 3 11 13
M  V30 13 1 6 8
M  V30 14 1 10 12
M  V30 END BOND
M  V30 END CTAB
M  END
>  <Structure No>
116

>  <Catalog ID>
Z1255422871

>  <MW (desalted)>
170.167

>  <ClogP>
0.700

>  <HBD>
1

>  <TPSA>
52.890

>  <RotBonds>
0

>  <Target>
Poly [ADP-ribose] polymerase-1

>  <fromRegid>
CHEMBL1173657

>  <Similarity>
0.85

$$$$
Compound 117
Actelion Java MolfileCreator 2.0

  0  0  0  0  0  0              0 V3000
M  V30 BEGIN CTAB
M  V30 COUNTS 13 14 0 0 0
M  V30 BEGIN ATOM
M  V30 1 O 0.0 0.0 0.0 0
M  V30 2 C -1.3075 -0.7421 0.0 0
M  V30 3 N -1.3193 -2.2263 0.0 0
M  V30 4 N -2.6151 0.0235 0.0 0
M  V30 5 C -2.6269 -2.9685 0.0 0
M  V30 6 C -3.9226 -0.7185 0.0 0
M  V30 7 O -2.6386 -4.4527 0.0 0
M  V30 8 C -3.9344 -2.2028 0.0 0
M  V30 9 C -5.2302 0.0471 0.0 0
M  V30 10 C -5.242 -2.9449 0.0 0
M  V30 11 C -6.5378 -0.695 0.0 0
M  V30 12 N -5.2538 -4.4292 0.0 0
M  V30 13 C -6.5495 -2.1792 0.0 0
M  V30 END ATOM
M  V30 BEGIN BOND
M  V30 1 2 1 2
M  V30 2 1 2 3
M  V30 3 1 2 4
M  V30 4 1 3 5
M  V30 5 1 4 6
M  V30 6 2 5 7
M  V30 7 1 5 8
M  V30 8 1 6 9
M  V30 9 1 8 10
M  V30 10 2 9 11
M  V30 11 1 10 12
M  V30 12 2 10 13
M  V30 13 2 6 8
M  V30 14 1 11 13
M  V30 END BOND
M  V30 END CTAB
M  END
>  <Structure No>
117

>  <Catalog ID>
Z1262634750

>  <MW (desalted)>
177.160

>  <ClogP>
-0.314

>  <HBD>
3

>  <TPSA>
84.220

>  <RotBonds>
0

>  <Target>
Poly [ADP-ribose] polymerase-1

>  <fromRegid>
CHEMBL421646

>  <Similarity>
0.95

$$$$
Compound 118
Actelion Java MolfileCreator 2.0

  0  0  0  0  0  0              0 V3000
M  V30 BEGIN CTAB
M  V30 COUNTS 13 14 0 0 0
M  V30 BEGIN ATOM
M  V30 1 O 0.0 0.0 0.0 0
M  V30 2 C -0.0117 1.5081 0.0 0
M  V30 3 N -1.3196 2.2739 0.0 0
M  V30 4 C 1.2724 2.2739 0.0 0
M  V30 5 C -1.3314 3.7821 0.0 0
M  V30 6 C -2.6274 1.5317 0.0 0
M  V30 7 C 1.2607 3.7821 0.0 0
M  V30 8 C 2.5567 1.5317 0.0 0
M  V30 9 C -0.0471 4.5362 0.0 0
M  V30 10 C 2.5449 4.5362 0.0 0
M  V30 11 C 3.841 2.2975 0.0 0
M  V30 12 N 2.5332 6.0443 0.0 0
M  V30 13 C 3.8292 3.8056 0.0 0
M  V30 END ATOM
M  V30 BEGIN BOND
M  V30 1 2 1 2
M  V30 2 1 2 3
M  V30 3 1 2 4
M  V30 4 1 3 5
M  V30 5 1 3 6
M  V30 6 2 4 7
M  V30 7 1 4 8
M  V30 8 2 5 9
M  V30 9 1 7 10
M  V30 10 2 8 11
M  V30 11 1 10 12
M  V30 12 2 10 13
M  V30 13 1 7 9
M  V30 14 1 11 13
M  V30 END BOND
M  V30 END CTAB
M  END
>  <Structure No>
118

>  <Catalog ID>
Z1262625575

>  <MW (desalted)>
174.199

>  <ClogP>
0.446

>  <HBD>
1

>  <TPSA>
46.330

>  <RotBonds>
0

>  <Target>
Poly [ADP-ribose] polymerase-1

>  <fromRegid>
CHEMBL446240

>  <Similarity>
0.9

$$$$
Compound 119
Actelion Java MolfileCreator 2.0

  0  0  0  0  0  0              0 V3000
M  V30 BEGIN CTAB
M  V30 COUNTS 13 14 0 0 0
M  V30 BEGIN ATOM
M  V30 1 O 0.0 0.0 0.0 0
M  V30 2 C 1.2902 -0.7457 0.0 0
M  V30 3 N 1.2784 -2.2372 0.0 0
M  V30 4 C 2.5805 0.0236 0.0 0
M  V30 5 C 3.8708 -0.722 0.0 0
M  V30 6 C 2.5687 1.5388 0.0 0
M  V30 7 C 5.161 0.0473 0.0 0
M  V30 8 C 3.8589 2.3082 0.0 0
M  V30 9 C 5.1492 1.5625 0.0 0
M  V30 10 C 6.4513 -0.6984 0.0 0
M  V30 11 C 6.4395 2.3319 0.0 0
M  V30 12 N 7.7416 0.071 0.0 0
M  V30 13 C 7.7297 1.5862 0.0 0
M  V30 END ATOM
M  V30 BEGIN BOND
M  V30 1 2 1 2
M  V30 2 1 2 3
M  V30 3 1 2 4
M  V30 4 2 4 5
M  V30 5 1 4 6
M  V30 6 1 5 7
M  V30 7 2 6 8
M  V30 8 2 7 9
M  V30 9 1 7 10
M  V30 10 1 9 11
M  V30 11 1 10 12
M  V30 12 1 11 13
M  V30 13 1 8 9
M  V30 14 1 12 13
M  V30 END BOND
M  V30 END CTAB
M  END
>  <Structure No>
119

>  <Catalog ID>
Z1262603067

>  <MW (desalted)>
176.215

>  <ClogP>
0.108

>  <HBD>
2

>  <TPSA>
55.120

>  <RotBonds>
1

>  <Target>
Poly [ADP-ribose] polymerase-1

>  <fromRegid>
CHEMBL125200

>  <Similarity>
0.88

$$$$
Compound 120
Actelion Java MolfileCreator 2.0

  0  0  0  0  0  0              0 V3000
M  V30 BEGIN CTAB
M  V30 COUNTS 13 15 0 0 0
M  V30 BEGIN ATOM
M  V30 1 N 0.0 0.0 0.0 0
M  V30 2 C -1.1467 0.9712 0.0 0
M  V30 3 C -0.5733 -1.3691 0.0 0
M  V30 4 C 1.451 0.3042 0.0 0
M  V30 5 C -1.1233 2.469 0.0 0
M  V30 6 C -2.4222 0.1989 0.0 0
M  V30 7 C -2.0712 -1.252 0.0 0
M  V30 8 C 2.118 1.6382 0.0 0
M  V30 9 C -2.5392 3.1828 0.0 0
M  V30 10 C 0.0468 3.3701 0.0 0
M  V30 11 C -3.7445 0.9127 0.0 0
M  V30 12 N 1.4978 3.0073 0.0 0
M  V30 13 C -3.8147 2.4105 0.0 0
M  V30 END ATOM
M  V30 BEGIN BOND
M  V30 1 1 1 2
M  V30 2 1 1 3
M  V30 3 1 1 4
M  V30 4 2 2 5
M  V30 5 1 2 6
M  V30 6 2 3 7
M  V30 7 1 4 8
M  V30 8 1 5 9
M  V30 9 1 5 10
M  V30 10 2 6 11
M  V30 11 1 8 12
M  V30 12 2 9 13
M  V30 13 1 6 7
M  V30 14 1 10 12
M  V30 15 1 11 13
M  V30 END BOND
M  V30 END CTAB
M  END
>  <Structure No>
120

>  <Catalog ID>
Z1262563874

>  <MW (desalted)>
172.226

>  <ClogP>
1.831

>  <HBD>
1

>  <TPSA>
16.960

>  <RotBonds>
0

>  <Target>
Poly [ADP-ribose] polymerase-1

>  <fromRegid>
CHEMBL366295

>  <Similarity>
0.85

$$$$
Compound 121
Actelion Java MolfileCreator 2.0

  0  0  0  0  0  0              0 V3000
M  V30 BEGIN CTAB
M  V30 COUNTS 13 14 0 0 0
M  V30 BEGIN ATOM
M  V30 1 Cl 0.0 0.0 0.0 0
M  V30 2 C -1.3077 -0.7304 0.0 0
M  V30 3 C -2.6155 0.0235 0.0 0
M  V30 4 C -1.3195 -2.2149 0.0 0
M  V30 5 C -3.9233 -0.7069 0.0 0
M  V30 6 C -2.6273 -2.9454 0.0 0
M  V30 7 S -5.3606 -0.2356 0.0 0
M  V30 8 C -3.935 -2.1913 0.0 0
M  V30 9 O -6.6684 0.5301 0.0 0
M  V30 10 O -4.7598 1.1428 0.0 0
M  V30 11 N -6.256 -1.4373 0.0 0
M  V30 12 C -5.3724 -2.6391 0.0 0
M  V30 13 O -5.8437 -4.0529 0.0 0
M  V30 END ATOM
M  V30 BEGIN BOND
M  V30 1 1 1 2
M  V30 2 2 2 3
M  V30 3 1 2 4
M  V30 4 1 3 5
M  V30 5 2 4 6
M  V30 6 1 5 7
M  V30 7 2 5 8
M  V30 8 2 7 9
M  V30 9 2 7 10
M  V30 10 1 7 11
M  V30 11 1 8 12
M  V30 12 2 12 13
M  V30 13 1 6 8
M  V30 14 1 11 12
M  V30 END BOND
M  V30 END CTAB
M  END
>  <Structure No>
121

>  <Catalog ID>
Z1269206304

>  <MW (desalted)>
217.630

>  <ClogP>
1.685

>  <HBD>
1

>  <TPSA>
63.240

>  <RotBonds>
0

>  <Target>
Serine/threonine-protein kinase Chk1

>  <fromRegid>
CHEMBL1967612

>  <Similarity>
0.94

$$$$
Compound 122
Actelion Java MolfileCreator 2.0

  0  0  0  0  0  0              0 V3000
M  V30 BEGIN CTAB
M  V30 COUNTS 13 14 0 0 0
M  V30 BEGIN ATOM
M  V30 1 O 0.0 0.0 0.0 0
M  V30 2 C -0.0117 1.5082 0.0 0
M  V30 3 N -1.3196 2.2741 0.0 0
M  V30 4 C 1.2725 2.2741 0.0 0
M  V30 5 C -1.3314 3.7823 0.0 0
M  V30 6 C -2.6275 1.5317 0.0 0
M  V30 7 C 1.2607 3.7823 0.0 0
M  V30 8 C 2.5568 1.5317 0.0 0
M  V30 9 N -0.0471 4.5482 0.0 0
M  V30 10 C 2.5451 4.5482 0.0 0
M  V30 11 C 3.8412 2.2976 0.0 0
M  V30 12 C 3.8294 3.8058 0.0 0
M  V30 13 O 5.1255 1.5553 0.0 0
M  V30 END ATOM
M  V30 BEGIN BOND
M  V30 1 2 1 2
M  V30 2 1 2 3
M  V30 3 1 2 4
M  V30 4 1 3 5
M  V30 5 1 3 6
M  V30 6 2 4 7
M  V30 7 1 4 8
M  V30 8 2 5 9
M  V30 9 1 7 10
M  V30 10 2 8 11
M  V30 11 2 10 12
M  V30 12 1 11 13
M  V30 13 1 7 9
M  V30 14 1 11 12
M  V30 END BOND
M  V30 END CTAB
M  END
>  <Structure No>
122

>  <Catalog ID>
Z1278927493

>  <MW (desalted)>
176.172

>  <ClogP>
0.730

>  <HBD>
1

>  <TPSA>
52.900

>  <RotBonds>
0

>  <Target>
Poly [ADP-ribose] polymerase-1

>  <fromRegid>
CHEMBL1949846

>  <Similarity>
0.9

$$$$
Compound 123
Actelion Java MolfileCreator 2.0

  0  0  0  0  0  0              0 V3000
M  V30 BEGIN CTAB
M  V30 COUNTS 20 20 0 0 0
M  V30 BEGIN ATOM
M  V30 1 F 0.0 0.0 0.0 0
M  V30 2 C -0.0118 -1.4946 0.0 0
M  V30 3 F 1.4828 -1.4828 0.0 0
M  V30 4 F -1.5302 -1.4828 0.0 0
M  V30 5 C -0.0237 -2.9893 0.0 0
M  V30 6 O 1.2692 -3.7248 0.0 0
M  V30 7 O -1.3404 -3.7248 0.0 0
M  V30 8 O -10.6288 0.2847 0.0 0
M  V30 9 C -10.1781 -1.1388 0.0 0
M  V30 10 N -11.0796 -2.3487 0.0 0
M  V30 11 C -8.7545 -1.5895 0.0 0
M  V30 12 C -10.2018 -3.5587 0.0 0
M  V30 13 C -8.7664 -3.0842 0.0 0
M  V30 14 C -7.4615 -0.8303 0.0 0
M  V30 15 O -10.6763 -4.9822 0.0 0
M  V30 16 C -7.4734 -3.8316 0.0 0
M  V30 17 C -6.1685 -1.5658 0.0 0
M  V30 18 C -6.1804 -3.0724 0.0 0
M  V30 19 C -4.8755 -0.8066 0.0 0
M  V30 20 N -4.8873 0.7117 0.0 0
M  V30 END ATOM
M  V30 BEGIN BOND
M  V30 1 1 1 2
M  V30 2 1 2 3
M  V30 3 1 2 4
M  V30 4 1 2 5
M  V30 5 2 5 6
M  V30 6 1 5 7
M  V30 7 2 8 9
M  V30 8 1 9 10
M  V30 9 1 9 11
M  V30 10 1 10 12
M  V30 11 2 11 13
M  V30 12 1 11 14
M  V30 13 2 12 15
M  V30 14 1 13 16
M  V30 15 2 14 17
M  V30 16 2 16 18
M  V30 17 1 17 19
M  V30 18 1 19 20
M  V30 19 1 12 13
M  V30 20 1 17 18
M  V30 END BOND
M  V30 END CTAB
M  END
>  <Structure No>
123

>  <Catalog ID>
Z2854589464

>  <MW (desalted)>
176.172

>  <ClogP>
0.100

>  <HBD>
2

>  <TPSA>
72.190

>  <RotBonds>
2

>  <Target>
Poly [ADP-ribose] polymerase-1

>  <fromRegid>
CHEMBL611975

>  <Similarity>
0.85

$$$$
Compound 124
Actelion Java MolfileCreator 2.0

  0  0  0  0  0  0              0 V3000
M  V30 BEGIN CTAB
M  V30 COUNTS 13 14 0 0 0
M  V30 BEGIN ATOM
M  V30 1 O 0.0 0.0 0.0 0
M  V30 2 C -0.0117 1.5096 0.0 0
M  V30 3 N -1.3209 2.2763 0.0 0
M  V30 4 C 1.2737 2.2763 0.0 0
M  V30 5 C -1.3327 3.786 0.0 0
M  V30 6 C 1.262 3.786 0.0 0
M  V30 7 C 2.5593 1.5332 0.0 0
M  V30 8 C -0.0471 4.5526 0.0 0
M  V30 9 C 2.5475 4.5526 0.0 0
M  V30 10 C 3.8449 2.2999 0.0 0
M  V30 11 C 3.8331 3.8095 0.0 0
M  V30 12 C 5.1305 1.5568 0.0 0
M  V30 13 N 6.4161 0.8138 0.0 0
M  V30 END ATOM
M  V30 BEGIN BOND
M  V30 1 2 1 2
M  V30 2 1 2 3
M  V30 3 1 2 4
M  V30 4 1 3 5
M  V30 5 2 4 6
M  V30 6 1 4 7
M  V30 7 1 5 8
M  V30 8 1 6 9
M  V30 9 2 7 10
M  V30 10 2 9 11
M  V30 11 1 10 12
M  V30 12 3 12 13
M  V30 13 1 6 8
M  V30 14 1 10 11
M  V30 END BOND
M  V30 END CTAB
M  END
>  <Structure No>
124

>  <Catalog ID>
Z1486007497

>  <MW (desalted)>
172.183

>  <ClogP>
0.897

>  <HBD>
1

>  <TPSA>
52.890

>  <RotBonds>
0

>  <Target>
Poly [ADP-ribose] polymerase-1

>  <fromRegid>
CHEMBL1688212

>  <Similarity>
0.87

$$$$
Compound 125
Actelion Java MolfileCreator 2.0

  0  0  0  0  0  0              0 V3000
M  V30 BEGIN CTAB
M  V30 COUNTS 13 14 0 0 0
M  V30 BEGIN ATOM
M  V30 1 Br 0.0 0.0 0.0 0
M  V30 2 C -0.0118 -1.4963 0.0 0
M  V30 3 C 1.2825 -2.2326 0.0 0
M  V30 4 C -1.33 -2.2326 0.0 0
M  V30 5 C 1.2706 -3.7289 0.0 0
M  V30 6 C 2.577 -1.4725 0.0 0
M  V30 7 C -1.3419 -3.7289 0.0 0
M  V30 8 C 2.5651 -4.4771 0.0 0
M  V30 9 C -0.0475 -4.4771 0.0 0
M  V30 10 C 3.8714 -2.2088 0.0 0
M  V30 11 C -2.6601 -4.4771 0.0 0
M  V30 12 O 2.5532 -5.9734 0.0 0
M  V30 13 N 3.8595 -3.7051 0.0 0
M  V30 END ATOM
M  V30 BEGIN BOND
M  V30 1 1 1 2
M  V30 2 2 2 3
M  V30 3 1 2 4
M  V30 4 1 3 5
M  V30 5 1 3 6
M  V30 6 2 4 7
M  V30 7 1 5 8
M  V30 8 2 5 9
M  V30 9 1 6 10
M  V30 10 1 7 11
M  V30 11 2 8 12
M  V30 12 1 8 13
M  V30 13 1 7 9
M  V30 14 1 10 13
M  V30 END BOND
M  V30 END CTAB
M  END
>  <Structure No>
125

>  <Catalog ID>
Z1513697130

>  <MW (desalted)>
240.097

>  <ClogP>
2.560

>  <HBD>
1

>  <TPSA>
29.100

>  <RotBonds>
0

>  <Target>
Poly [ADP-ribose] polymerase-1

>  <fromRegid>
CHEMBL3629673

>  <Similarity>
0.87

$$$$
Compound 126
Actelion Java MolfileCreator 2.0

  0  0  0  0  0  0              0 V3000
M  V30 BEGIN CTAB
M  V30 COUNTS 13 14 0 0 0
M  V30 BEGIN ATOM
M  V30 1 Cl 0.0 0.0 0.0 0
M  V30 2 C -0.0118 -1.4911 0.0 0
M  V30 3 C -1.3254 -2.2248 0.0 0
M  V30 4 C 1.2781 -2.2248 0.0 0
M  V30 5 C -2.7692 -1.7514 0.0 0
M  V30 6 C -1.3372 -3.7159 0.0 0
M  V30 7 C 1.2662 -3.7159 0.0 0
M  V30 8 O -3.2426 -0.3076 0.0 0
M  V30 9 N -3.6686 -2.9585 0.0 0
M  V30 10 S -2.781 -4.1656 0.0 0
M  V30 11 C -0.0473 -4.4497 0.0 0
M  V30 12 O -3.8935 -5.1716 0.0 0
M  V30 13 O -2.497 -5.6331 0.0 0
M  V30 END ATOM
M  V30 BEGIN BOND
M  V30 1 1 1 2
M  V30 2 2 2 3
M  V30 3 1 2 4
M  V30 4 1 3 5
M  V30 5 1 3 6
M  V30 6 2 4 7
M  V30 7 2 5 8
M  V30 8 1 5 9
M  V30 9 1 6 10
M  V30 10 2 6 11
M  V30 11 2 10 12
M  V30 12 2 10 13
M  V30 13 1 7 11
M  V30 14 1 9 10
M  V30 END BOND
M  V30 END CTAB
M  END
>  <Structure No>
126

>  <Catalog ID>
Z1862012665

>  <MW (desalted)>
217.630

>  <ClogP>
1.685

>  <HBD>
1

>  <TPSA>
63.240

>  <RotBonds>
0

>  <Target>
Serine/threonine-protein kinase Chk1

>  <fromRegid>
CHEMBL1967612

>  <Similarity>
0.89

$$$$
Compound 127
Actelion Java MolfileCreator 2.0

  0  0  0  0  0  0              0 V3000
M  V30 BEGIN CTAB
M  V30 COUNTS 13 14 0 0 0
M  V30 BEGIN ATOM
M  V30 1 Cl 0.0 0.0 0.0 0
M  V30 2 C -0.0118 -1.4904 0.0 0
M  V30 3 C -1.3248 -2.2238 0.0 0
M  V30 4 C 1.2775 -2.2238 0.0 0
M  V30 5 S -2.7679 -1.7506 0.0 0
M  V30 6 C -1.3366 -3.7142 0.0 0
M  V30 7 C 1.2656 -3.7142 0.0 0
M  V30 8 O -4.0809 -0.9936 0.0 0
M  V30 9 O -2.1646 -0.3666 0.0 0
M  V30 10 N -3.6669 -2.9572 0.0 0
M  V30 11 C -2.7797 -4.1637 0.0 0
M  V30 12 C -0.0473 -4.4476 0.0 0
M  V30 13 O -3.2529 -5.5832 0.0 0
M  V30 END ATOM
M  V30 BEGIN BOND
M  V30 1 1 1 2
M  V30 2 2 2 3
M  V30 3 1 2 4
M  V30 4 1 3 5
M  V30 5 1 3 6
M  V30 6 2 4 7
M  V30 7 2 5 8
M  V30 8 2 5 9
M  V30 9 1 5 10
M  V30 10 1 6 11
M  V30 11 2 6 12
M  V30 12 2 11 13
M  V30 13 1 7 12
M  V30 14 1 10 11
M  V30 END BOND
M  V30 END CTAB
M  END
>  <Structure No>
127

>  <Catalog ID>
Z1862012659

>  <MW (desalted)>
217.630

>  <ClogP>
1.685

>  <HBD>
1

>  <TPSA>
63.240

>  <RotBonds>
0

>  <Target>
Serine/threonine-protein kinase Chk1

>  <fromRegid>
CHEMBL1967612

>  <Similarity>
0.93

$$$$
Compound 128
Actelion Java MolfileCreator 2.0

  0  0  0  0  0  0              0 V3000
M  V30 BEGIN CTAB
M  V30 COUNTS 14 14 0 0 0
M  V30 BEGIN ATOM
M  V30 1 Cl 0.0 0.0 0.0 0
M  V30 2 O 6.7957 -2.8315 0.0 0
M  V30 3 C 5.4861 -2.0764 0.0 0
M  V30 4 N 4.1765 -2.8079 0.0 0
M  V30 5 C 5.4743 -0.5663 0.0 0
M  V30 6 C 6.7603 0.1887 0.0 0
M  V30 7 C 4.1647 0.1887 0.0 0
M  V30 8 C 6.7485 1.6989 0.0 0
M  V30 9 C 8.0463 -0.5427 0.0 0
M  V30 10 C 4.1529 1.6989 0.0 0
M  V30 11 C 5.4389 2.454 0.0 0
M  V30 12 C 8.0345 2.454 0.0 0
M  V30 13 C 9.3323 0.2123 0.0 0
M  V30 14 N 9.3205 1.7225 0.0 0
M  V30 END ATOM
M  V30 BEGIN BOND
M  V30 1 2 2 3
M  V30 2 1 3 4
M  V30 3 1 3 5
M  V30 4 2 5 6
M  V30 5 1 5 7
M  V30 6 1 6 8
M  V30 7 1 6 9
M  V30 8 2 7 10
M  V30 9 2 8 11
M  V30 10 1 8 12
M  V30 11 1 9 13
M  V30 12 1 12 14
M  V30 13 1 10 11
M  V30 14 1 13 14
M  V30 END BOND
M  V30 END CTAB
M  END
>  <Structure No>
128

>  <Catalog ID>
Z2583130856

>  <MW (desalted)>
176.215

>  <ClogP>
0.108

>  <HBD>
2

>  <TPSA>
55.120

>  <RotBonds>
1

>  <Target>
Poly [ADP-ribose] polymerase-1

>  <fromRegid>
CHEMBL1688212

>  <Similarity>
0.88

$$$$
Compound 129
Actelion Java MolfileCreator 2.0

  0  0  0  0  0  0              0 V3000
M  V30 BEGIN CTAB
M  V30 COUNTS 13 14 0 0 0
M  V30 BEGIN ATOM
M  V30 1 Cl 0.0 0.0 0.0 0
M  V30 2 C -0.0118 -1.4946 0.0 0
M  V30 3 C 1.2811 -2.23 0.0 0
M  V30 4 C -1.3285 -2.23 0.0 0
M  V30 5 C 2.574 -1.4709 0.0 0
M  V30 6 C 1.2692 -3.7247 0.0 0
M  V30 7 C -1.3404 -3.7247 0.0 0
M  V30 8 O 2.5622 0.0474 0.0 0
M  V30 9 N 3.867 -2.2063 0.0 0
M  V30 10 N 2.5622 -4.472 0.0 0
M  V30 11 C -0.0474 -4.472 0.0 0
M  V30 12 Cl -2.6571 -4.472 0.0 0
M  V30 13 C 3.8552 -3.701 0.0 0
M  V30 END ATOM
M  V30 BEGIN BOND
M  V30 1 1 1 2
M  V30 2 2 2 3
M  V30 3 1 2 4
M  V30 4 1 3 5
M  V30 5 1 3 6
M  V30 6 2 4 7
M  V30 7 2 5 8
M  V30 8 1 5 9
M  V30 9 1 6 10
M  V30 10 2 6 11
M  V30 11 1 7 12
M  V30 12 1 9 13
M  V30 13 1 7 11
M  V30 14 2 10 13
M  V30 END BOND
M  V30 END CTAB
M  END
>  <Structure No>
129

>  <Catalog ID>
Z1694627901

>  <MW (desalted)>
215.036

>  <ClogP>
1.809

>  <HBD>
1

>  <TPSA>
41.460

>  <RotBonds>
0

>  <Target>
Poly [ADP-ribose] polymerase-1

>  <fromRegid>
CHEMBL1949841

>  <Similarity>
0.96

$$$$
Compound 130
Actelion Java MolfileCreator 2.0

  0  0  0  0  0  0              0 V3000
M  V30 BEGIN CTAB
M  V30 COUNTS 13 14 0 0 0
M  V30 BEGIN ATOM
M  V30 1 O 0.0 0.0 0.0 0
M  V30 2 C -1.3122 -0.7329 0.0 0
M  V30 3 N -2.6244 0.0236 0.0 0
M  V30 4 C -1.324 -2.2225 0.0 0
M  V30 5 C -2.6363 1.5368 0.0 0
M  V30 6 C -2.6363 -2.9555 0.0 0
M  V30 7 C -0.0354 -2.9555 0.0 0
M  V30 8 N -4.0785 -2.4826 0.0 0
M  V30 9 C -2.6481 -4.445 0.0 0
M  V30 10 C -0.0472 -4.445 0.0 0
M  V30 11 N -4.977 -3.6884 0.0 0
M  V30 12 C -1.3595 -5.178 0.0 0
M  V30 13 C -4.0904 -4.8943 0.0 0
M  V30 END ATOM
M  V30 BEGIN BOND
M  V30 1 2 1 2
M  V30 2 1 2 3
M  V30 3 1 2 4
M  V30 4 1 3 5
M  V30 5 2 4 6
M  V30 6 1 4 7
M  V30 7 1 6 8
M  V30 8 1 6 9
M  V30 9 2 7 10
M  V30 10 1 8 11
M  V30 11 2 9 12
M  V30 12 1 9 13
M  V30 13 1 10 12
M  V30 14 2 11 13
M  V30 END BOND
M  V30 END CTAB
M  END
>  <Structure No>
130

>  <Catalog ID>
Z332659752

>  <MW (desalted)>
175.187

>  <ClogP>
0.995

>  <HBD>
2

>  <TPSA>
57.780

>  <RotBonds>
1

>  <Target>
Serine/threonine-protein kinase Chk1

>  <fromRegid>
CHEMBL451401

>  <Similarity>
0.9

$$$$
Compound 131
Actelion Java MolfileCreator 2.0

  0  0  0  0  0  0              0 V3000
M  V30 BEGIN CTAB
M  V30 COUNTS 13 14 0 0 0
M  V30 BEGIN ATOM
M  V30 1 S 0.0 0.0 0.0 0
M  V30 2 C 1.4147 0.4715 0.0 0
M  V30 3 C -0.896 1.2261 0.0 0
M  V30 4 N 2.8295 0.0235 0.0 0
M  V30 5 C 1.403 1.9807 0.0 0
M  V30 6 C -2.4051 1.2379 0.0 0
M  V30 7 C -0.0235 2.4523 0.0 0
M  V30 8 N 3.702 1.2497 0.0 0
M  V30 9 C 3.2775 -1.3912 0.0 0
M  V30 10 C 2.8177 2.4523 0.0 0
M  V30 11 O -3.1596 2.5466 0.0 0
M  V30 12 C -3.1596 -0.0471 0.0 0
M  V30 13 C 3.2658 3.8906 0.0 0
M  V30 END ATOM
M  V30 BEGIN BOND
M  V30 1 1 1 2
M  V30 2 1 1 3
M  V30 3 1 2 4
M  V30 4 2 2 5
M  V30 5 1 3 6
M  V30 6 2 3 7
M  V30 7 1 4 8
M  V30 8 1 4 9
M  V30 9 1 5 10
M  V30 10 2 6 11
M  V30 11 1 6 12
M  V30 12 1 10 13
M  V30 13 1 5 7
M  V30 14 2 8 10
M  V30 END BOND
M  V30 END CTAB
M  END
>  <Structure No>
131

>  <Catalog ID>
Z2010010294

>  <MW (desalted)>
194.254

>  <ClogP>
1.464

>  <HBD>
0

>  <TPSA>
34.890

>  <RotBonds>
1

>  <Target>
Serine/threonine-protein kinase Chk1

>  <fromRegid>
CHEMBL1986588

>  <Similarity>
0.86

$$$$
Compound 132
Actelion Java MolfileCreator 2.0

  0  0  0  0  0  0              0 V3000
M  V30 BEGIN CTAB
M  V30 COUNTS 13 14 0 0 0
M  V30 BEGIN ATOM
M  V30 1 F 0.0 0.0 0.0 0
M  V30 2 C -0.0117 1.5022 0.0 0
M  V30 3 C -1.3145 2.2651 0.0 0
M  V30 4 C 1.2675 2.2651 0.0 0
M  V30 5 C -2.6172 1.5257 0.0 0
M  V30 6 C -1.3262 3.7674 0.0 0
M  V30 7 C 1.2558 3.7674 0.0 0
M  V30 8 O -2.629 0.0469 0.0 0
M  V30 9 N -3.92 2.2886 0.0 0
M  V30 10 N -2.629 4.5303 0.0 0
M  V30 11 C -0.0469 4.5303 0.0 0
M  V30 12 C -3.9317 3.7909 0.0 0
M  V30 13 C -5.2228 1.5492 0.0 0
M  V30 END ATOM
M  V30 BEGIN BOND
M  V30 1 1 1 2
M  V30 2 2 2 3
M  V30 3 1 2 4
M  V30 4 1 3 5
M  V30 5 1 3 6
M  V30 6 2 4 7
M  V30 7 2 5 8
M  V30 8 1 5 9
M  V30 9 1 6 10
M  V30 10 2 6 11
M  V30 11 1 9 12
M  V30 12 1 9 13
M  V30 13 1 7 11
M  V30 14 2 10 12
M  V30 END BOND
M  V30 END CTAB
M  END
>  <Structure No>
132

>  <Catalog ID>
Z1328990525

>  <MW (desalted)>
178.163

>  <ClogP>
0.803

>  <HBD>
0

>  <TPSA>
32.670

>  <RotBonds>
0

>  <Target>
Poly [ADP-ribose] polymerase-1

>  <fromRegid>
CHEMBL1949840

>  <Similarity>
0.92

$$$$
Compound 133
Actelion Java MolfileCreator 2.0

  0  0  0  0  0  0              0 V3000
M  V30 BEGIN CTAB
M  V30 COUNTS 14 15 0 0 0
M  V30 BEGIN ATOM
M  V30 1 O 0.0 0.0 0.0 0
M  V30 2 C 1.2943 -0.7481 0.0 0
M  V30 3 N 1.2824 -2.2443 0.0 0
M  V30 4 N 2.5886 0.0237 0.0 0
M  V30 5 C 2.5768 -2.9924 0.0 0
M  V30 6 C -0.0356 -2.9924 0.0 0
M  V30 7 C 3.883 -0.7243 0.0 0
M  V30 8 O 2.5649 -4.4886 0.0 0
M  V30 9 C 3.8711 -2.2205 0.0 0
M  V30 10 C -0.0474 -4.4886 0.0 0
M  V30 11 C 5.1773 0.0474 0.0 0
M  V30 12 C 5.1655 -2.9686 0.0 0
M  V30 13 C 6.4717 -0.7006 0.0 0
M  V30 14 C 6.4598 -2.1968 0.0 0
M  V30 END ATOM
M  V30 BEGIN BOND
M  V30 1 2 1 2
M  V30 2 1 2 3
M  V30 3 1 2 4
M  V30 4 1 3 5
M  V30 5 1 3 6
M  V30 6 1 4 7
M  V30 7 2 5 8
M  V30 8 1 5 9
M  V30 9 1 6 10
M  V30 10 1 7 11
M  V30 11 1 9 12
M  V30 12 2 11 13
M  V30 13 2 12 14
M  V30 14 2 7 9
M  V30 15 1 13 14
M  V30 END BOND
M  V30 END CTAB
M  END
>  <Structure No>
133

>  <Catalog ID>
Z57440638

>  <MW (desalted)>
190.199

>  <ClogP>
1.913

>  <HBD>
1

>  <TPSA>
49.410

>  <RotBonds>
1

>  <Target>
Poly [ADP-ribose] polymerase-1

>  <fromRegid>
CHEMBL421646

>  <Similarity>
0.86

$$$$
Compound 134
Actelion Java MolfileCreator 2.0

  0  0  0  0  0  0              0 V3000
M  V30 BEGIN CTAB
M  V30 COUNTS 14 16 0 0 0
M  V30 BEGIN ATOM
M  V30 1 S 0.0 0.0 0.0 0
M  V30 2 C -1.2318 -0.8715 0.0 0
M  V30 3 C 1.2085 -0.8715 0.0 0
M  V30 4 N -2.7193 -0.5461 0.0 0
M  V30 5 C -0.7786 -2.2893 0.0 0
M  V30 6 C 0.7321 -2.2893 0.0 0
M  V30 7 C 2.6728 -0.5461 0.0 0
M  V30 8 C -3.7419 -1.6501 0.0 0
M  V30 9 C -1.8012 -3.3933 0.0 0
M  V30 10 C 1.7315 -3.3933 0.0 0
M  V30 11 C 3.6722 -1.6501 0.0 0
M  V30 12 N -3.2887 -3.0679 0.0 0
M  V30 13 O -1.348 -4.8111 0.0 0
M  V30 14 C 3.1958 -3.0679 0.0 0
M  V30 END ATOM
M  V30 BEGIN BOND
M  V30 1 1 1 2
M  V30 2 1 1 3
M  V30 3 1 2 4
M  V30 4 2 2 5
M  V30 5 2 3 6
M  V30 6 1 3 7
M  V30 7 2 4 8
M  V30 8 1 5 9
M  V30 9 1 6 10
M  V30 10 1 7 11
M  V30 11 1 8 12
M  V30 12 2 9 13
M  V30 13 1 10 14
M  V30 14 1 5 6
M  V30 15 1 9 12
M  V30 16 1 11 14
M  V30 END BOND
M  V30 END CTAB
M  END
>  <Structure No>
134

>  <Catalog ID>
Z56757191

>  <MW (desalted)>
206.264

>  <ClogP>
1.696

>  <HBD>
1

>  <TPSA>
41.460

>  <RotBonds>
0

>  <Target>
Serine/threonine-protein kinase Chk1

>  <fromRegid>
CHEMBL539906

>  <Similarity>
1.0

$$$$
Compound 135
Actelion Java MolfileCreator 2.0

  0  0  0  0  0  0              0 V3000
M  V30 BEGIN CTAB
M  V30 COUNTS 14 15 0 0 0
M  V30 BEGIN ATOM
M  V30 1 O 0.0 0.0 0.0 0
M  V30 2 C -1.3051 0.7642 0.0 0
M  V30 3 O -2.6102 0.0235 0.0 0
M  V30 4 C -1.3168 2.2692 0.0 0
M  V30 5 C -0.0352 3.0335 0.0 0
M  V30 6 C -2.622 3.0335 0.0 0
M  V30 7 C -0.047 4.5385 0.0 0
M  V30 8 C 1.2463 2.2927 0.0 0
M  V30 9 C -2.6337 4.5385 0.0 0
M  V30 10 N -1.3521 5.3028 0.0 0
M  V30 11 C 1.2345 5.3028 0.0 0
M  V30 12 C 2.5279 3.057 0.0 0
M  V30 13 O -3.9389 5.3028 0.0 0
M  V30 14 C 2.5161 4.562 0.0 0
M  V30 END ATOM
M  V30 BEGIN BOND
M  V30 1 2 1 2
M  V30 2 1 2 3
M  V30 3 1 2 4
M  V30 4 1 4 5
M  V30 5 2 4 6
M  V30 6 1 5 7
M  V30 7 2 5 8
M  V30 8 1 6 9
M  V30 9 1 7 10
M  V30 10 2 7 11
M  V30 11 1 8 12
M  V30 12 1 9 13
M  V30 13 1 11 14
M  V30 14 2 9 10
M  V30 15 2 12 14
M  V30 END BOND
M  V30 END CTAB
M  END
>  <Structure No>
135

>  <Catalog ID>
Z57070446

>  <MW (desalted)>
189.167

>  <ClogP>
2.522

>  <HBD>
2

>  <TPSA>
70.420

>  <RotBonds>
1

>  <Target>
Poly [ADP-ribose] polymerase-1

>  <fromRegid>
CHEMBL1205058

>  <Similarity>
0.85

$$$$
Compound 136
Actelion Java MolfileCreator 2.0

  0  0  0  0  0  0              0 V3000
M  V30 BEGIN CTAB
M  V30 COUNTS 14 16 0 0 0
M  V30 BEGIN ATOM
M  V30 1 S 0.0 0.0 0.0 0
M  V30 2 C -1.2416 -0.8513 0.0 0
M  V30 3 C 1.1824 -0.8986 0.0 0
M  V30 4 N -2.7197 -0.4966 0.0 0
M  V30 5 C -0.8159 -2.2821 0.0 0
M  V30 6 C 0.674 -2.3058 0.0 0
M  V30 7 C 2.6724 -0.9223 0.0 0
M  V30 8 C -3.7602 -1.5845 0.0 0
M  V30 9 C -1.8564 -3.37 0.0 0
M  V30 10 C 1.8564 -3.2045 0.0 0
M  V30 11 C 3.098 -2.3531 0.0 0
M  V30 12 N -3.3345 -3.0153 0.0 0
M  V30 13 C -5.2383 -1.2297 0.0 0
M  V30 14 O -1.4307 -4.8008 0.0 0
M  V30 END ATOM
M  V30 BEGIN BOND
M  V30 1 1 1 2
M  V30 2 1 1 3
M  V30 3 1 2 4
M  V30 4 2 2 5
M  V30 5 2 3 6
M  V30 6 1 3 7
M  V30 7 2 4 8
M  V30 8 1 5 9
M  V30 9 1 6 10
M  V30 10 1 7 11
M  V30 11 1 8 12
M  V30 12 1 8 13
M  V30 13 2 9 14
M  V30 14 1 5 6
M  V30 15 1 9 12
M  V30 16 1 10 11
M  V30 END BOND
M  V30 END CTAB
M  END
>  <Structure No>
136

>  <Catalog ID>
Z55164934

>  <MW (desalted)>
206.264

>  <ClogP>
1.636

>  <HBD>
1

>  <TPSA>
41.460

>  <RotBonds>
0

>  <Target>
Serine/threonine-protein kinase Chk1

>  <fromRegid>
CHEMBL539906

>  <Similarity>
0.89

$$$$
Compound 137
Actelion Java MolfileCreator 2.0

  0  0  0  0  0  0              0 V3000
M  V30 BEGIN CTAB
M  V30 COUNTS 14 16 0 0 0
M  V30 BEGIN ATOM
M  V30 1 S 0.0 0.0 0.0 0
M  V30 2 C 0.0939 1.5033 0.0 0
M  V30 3 C -1.4563 -0.3406 0.0 0
M  V30 4 N -1.3036 2.0788 0.0 0
M  V30 5 N 1.3506 2.302 0.0 0
M  V30 6 C -2.255 0.9395 0.0 0
M  V30 7 C -2.1728 -1.6442 0.0 0
M  V30 8 C -3.7583 0.9043 0.0 0
M  V30 9 C -3.6761 -1.6795 0.0 0
M  V30 10 C -4.4748 -0.3993 0.0 0
M  V30 11 C -4.557 2.1845 0.0 0
M  V30 12 C -5.9781 -0.4345 0.0 0
M  V30 13 C -6.0603 2.1493 0.0 0
M  V30 14 C -6.7768 0.8456 0.0 0
M  V30 END ATOM
M  V30 BEGIN BOND
M  V30 1 1 1 2
M  V30 2 1 1 3
M  V30 3 2 2 4
M  V30 4 1 2 5
M  V30 5 2 3 6
M  V30 6 1 3 7
M  V30 7 1 6 8
M  V30 8 1 7 9
M  V30 9 2 8 10
M  V30 10 1 8 11
M  V30 11 1 10 12
M  V30 12 2 11 13
M  V30 13 2 12 14
M  V30 14 1 4 6
M  V30 15 1 9 10
M  V30 16 1 13 14
M  V30 END BOND
M  V30 END CTAB
M  END
>  <Structure No>
137

>  <Catalog ID>
Z48847686

>  <MW (desalted)>
202.276

>  <ClogP>
2.781

>  <HBD>
1

>  <TPSA>
38.910

>  <RotBonds>
0

>  <Target>
Serine/threonine-protein kinase Chk1

>  <fromRegid>
CHEMBL1178727

>  <Similarity>
0.87

$$$$
Compound 138
Actelion Java MolfileCreator 2.0

  0  0  0  0  0  0              0 V3000
M  V30 BEGIN CTAB
M  V30 COUNTS 14 15 0 0 0
M  V30 BEGIN ATOM
M  V30 1 O 0.0 0.0 0.0 0
M  V30 2 C -0.0117 1.5067 0.0 0
M  V30 3 N -1.3183 2.2718 0.0 0
M  V30 4 C 1.2712 2.2718 0.0 0
M  V30 5 N -1.3301 3.7785 0.0 0
M  V30 6 C 1.2595 3.7785 0.0 0
M  V30 7 C 2.5543 1.5302 0.0 0
M  V30 8 C -0.047 4.5318 0.0 0
M  V30 9 C 2.5425 4.5318 0.0 0
M  V30 10 C 3.8373 2.2953 0.0 0
M  V30 11 C -0.0588 6.0385 0.0 0
M  V30 12 C 3.8256 3.802 0.0 0
M  V30 13 C -1.3654 6.7919 0.0 0
M  V30 14 N -2.672 7.557 0.0 0
M  V30 END ATOM
M  V30 BEGIN BOND
M  V30 1 2 1 2
M  V30 2 1 2 3
M  V30 3 1 2 4
M  V30 4 1 3 5
M  V30 5 2 4 6
M  V30 6 1 4 7
M  V30 7 2 5 8
M  V30 8 1 6 9
M  V30 9 2 7 10
M  V30 10 1 8 11
M  V30 11 2 9 12
M  V30 12 1 11 13
M  V30 13 3 13 14
M  V30 14 1 6 8
M  V30 15 1 10 12
M  V30 END BOND
M  V30 END CTAB
M  END
>  <Structure No>
138

>  <Catalog ID>
Z56956071

>  <MW (desalted)>
185.182

>  <ClogP>
-0.423

>  <HBD>
1

>  <TPSA>
65.250

>  <RotBonds>
1

>  <Target>
Poly [ADP-ribose] polymerase-1

>  <fromRegid>
CHEMBL66761

>  <Similarity>
0.89

$$$$
Compound 139
Actelion Java MolfileCreator 2.0

  0  0  0  0  0  0              0 V3000
M  V30 BEGIN CTAB
M  V30 COUNTS 14 16 0 0 0
M  V30 BEGIN ATOM
M  V30 1 O 0.0 0.0 0.0 0
M  V30 2 C 0.4492 1.4421 0.0 0
M  V30 3 N -0.5674 2.5652 0.0 0
M  V30 4 C 1.9032 1.7613 0.0 0
M  V30 5 C -0.1182 4.0074 0.0 0
M  V30 6 O 3.1089 0.8865 0.0 0
M  V30 7 C 2.3524 3.2035 0.0 0
M  V30 8 N 1.3358 4.3265 0.0 0
M  V30 9 C 4.3147 1.785 0.0 0
M  V30 10 C 3.8419 3.2153 0.0 0
M  V30 11 C 5.7687 1.4894 0.0 0
M  V30 12 C 4.8348 4.3383 0.0 0
M  V30 13 C 6.7617 2.6124 0.0 0
M  V30 14 C 6.2889 4.0428 0.0 0
M  V30 END ATOM
M  V30 BEGIN BOND
M  V30 1 2 1 2
M  V30 2 1 2 3
M  V30 3 1 2 4
M  V30 4 1 3 5
M  V30 5 1 4 6
M  V30 6 2 4 7
M  V30 7 2 5 8
M  V30 8 1 6 9
M  V30 9 1 7 10
M  V30 10 1 9 11
M  V30 11 1 10 12
M  V30 12 2 11 13
M  V30 13 2 12 14
M  V30 14 1 7 8
M  V30 15 2 9 10
M  V30 16 1 13 14
M  V30 END BOND
M  V30 END CTAB
M  END
>  <Structure No>
139

>  <Catalog ID>
Z62452555

>  <MW (desalted)>
186.167

>  <ClogP>
0.865

>  <HBD>
1

>  <TPSA>
54.600

>  <RotBonds>
0

>  <Target>
Serine/threonine-protein kinase Chk2

>  <fromRegid>
CHEMBL1992323

>  <Similarity>
0.94

$$$$
Compound 140
Actelion Java MolfileCreator 2.0

  0  0  0  0  0  0              0 V3000
M  V30 BEGIN CTAB
M  V30 COUNTS 14 15 0 0 0
M  V30 BEGIN ATOM
M  V30 1 O 0.0 0.0 0.0 0
M  V30 2 C -1.3085 -0.7427 0.0 0
M  V30 3 N -1.3203 -2.2281 0.0 0
M  V30 4 N -2.6171 0.0235 0.0 0
M  V30 5 C -2.6289 -2.9708 0.0 0
M  V30 6 C -0.0353 -2.9708 0.0 0
M  V30 7 C -3.9257 -0.7191 0.0 0
M  V30 8 C -2.6289 1.5325 0.0 0
M  V30 9 O -2.6407 -4.4562 0.0 0
M  V30 10 C -3.9375 -2.2045 0.0 0
M  V30 11 N -5.364 -0.2475 0.0 0
M  V30 12 N -5.3758 -2.6525 0.0 0
M  V30 13 C -6.26 -1.45 0.0 0
M  V30 14 C -5.8474 -4.0672 0.0 0
M  V30 END ATOM
M  V30 BEGIN BOND
M  V30 1 2 1 2
M  V30 2 1 2 3
M  V30 3 1 2 4
M  V30 4 1 3 5
M  V30 5 1 3 6
M  V30 6 1 4 7
M  V30 7 1 4 8
M  V30 8 2 5 9
M  V30 9 1 5 10
M  V30 10 1 7 11
M  V30 11 1 10 12
M  V30 12 2 11 13
M  V30 13 1 12 14
M  V30 14 2 7 10
M  V30 15 1 12 13
M  V30 END BOND
M  V30 END CTAB
M  END
>  <Structure No>
140

>  <Catalog ID>
Z104507896

>  <MW (desalted)>
194.191

>  <ClogP>
-0.040

>  <HBD>
0

>  <TPSA>
58.440

>  <RotBonds>
0

>  <Target>
Serine-protein kinase ATM

>  <fromRegid>
CHEMBL113

>  <Similarity>
1.0

$$$$
Compound 141
Actelion Java MolfileCreator 2.0

  0  0  0  0  0  0              0 V3000
M  V30 BEGIN CTAB
M  V30 COUNTS 14 15 0 0 0
M  V30 BEGIN ATOM
M  V30 1 S 0.0 0.0 0.0 0
M  V30 2 C 1.4148 0.4716 0.0 0
M  V30 3 C -0.896 1.2262 0.0 0
M  V30 4 N 2.7 -0.2711 0.0 0
M  V30 5 N 1.403 1.9807 0.0 0
M  V30 6 C -0.0235 2.4524 0.0 0
M  V30 7 C -2.4052 1.2379 0.0 0
M  V30 8 C 3.9851 0.4951 0.0 0
M  V30 9 C 2.6882 2.7471 0.0 0
M  V30 10 C 3.9733 2.0043 0.0 0
M  V30 11 O 2.6764 4.2563 0.0 0
M  V30 12 C 5.2585 2.7707 0.0 0
M  V30 13 O 5.2467 4.2799 0.0 0
M  V30 14 O 6.5437 2.0397 0.0 0
M  V30 END ATOM
M  V30 BEGIN BOND
M  V30 1 1 1 2
M  V30 2 1 1 3
M  V30 3 2 2 4
M  V30 4 1 2 5
M  V30 5 2 3 6
M  V30 6 1 3 7
M  V30 7 1 4 8
M  V30 8 1 5 9
M  V30 9 2 8 10
M  V30 10 2 9 11
M  V30 11 1 10 12
M  V30 12 2 12 13
M  V30 13 1 12 14
M  V30 14 1 5 6
M  V30 15 1 9 10
M  V30 END BOND
M  V30 END CTAB
M  END
>  <Structure No>
141

>  <Catalog ID>
Z57301586

>  <MW (desalted)>
210.210

>  <ClogP>
0.635

>  <HBD>
1

>  <TPSA>
69.970

>  <RotBonds>
1

>  <Target>
Serine/threonine-protein kinase Chk1

>  <fromRegid>
CHEMBL1971679

>  <Similarity>
0.87

$$$$
Compound 142
Actelion Java MolfileCreator 2.0

  0  0  0  0  0  0              0 V3000
M  V30 BEGIN CTAB
M  V30 COUNTS 15 15 0 0 0
M  V30 BEGIN ATOM
M  V30 1 Cl 0.0 0.0 0.0 0
M  V30 2 O 8.3526 2.9424 0.0 0
M  V30 3 C 8.8034 1.5186 0.0 0
M  V30 4 N 7.9017 0.3084 0.0 0
M  V30 5 C 10.2272 1.0678 0.0 0
M  V30 6 C 8.7797 -0.9017 0.0 0
M  V30 7 C 6.3831 0.3203 0.0 0
M  V30 8 C 10.2153 -0.4271 0.0 0
M  V30 9 C 11.5204 1.8271 0.0 0
M  V30 10 O 8.3051 -2.3254 0.0 0
M  V30 11 C 5.6237 -0.9728 0.0 0
M  V30 12 C 11.5086 -1.1627 0.0 0
M  V30 13 C 12.8137 1.0796 0.0 0
M  V30 14 N 4.1051 -0.961 0.0 0
M  V30 15 C 12.8018 -0.4033 0.0 0
M  V30 END ATOM
M  V30 BEGIN BOND
M  V30 1 2 2 3
M  V30 2 1 3 4
M  V30 3 1 3 5
M  V30 4 1 4 6
M  V30 5 1 4 7
M  V30 6 2 5 8
M  V30 7 1 5 9
M  V30 8 2 6 10
M  V30 9 1 7 11
M  V30 10 1 8 12
M  V30 11 2 9 13
M  V30 12 1 11 14
M  V30 13 2 12 15
M  V30 14 1 6 8
M  V30 15 1 13 15
M  V30 END BOND
M  V30 END CTAB
M  END
>  <Structure No>
142

>  <Catalog ID>
Z812516920

>  <MW (desalted)>
190.199

>  <ClogP>
0.752

>  <HBD>
1

>  <TPSA>
63.400

>  <RotBonds>
2

>  <Target>
Poly [ADP-ribose] polymerase-1

>  <fromRegid>
CHEMBL611975

>  <Similarity>
0.85

$$$$
Compound 143
Actelion Java MolfileCreator 2.0

  0  0  0  0  0  0              0 V3000
M  V30 BEGIN CTAB
M  V30 COUNTS 14 15 0 0 0
M  V30 BEGIN ATOM
M  V30 1 O 0.0 0.0 0.0 0
M  V30 2 C -0.0117 1.505 0.0 0
M  V30 3 N -1.3168 2.2692 0.0 0
M  V30 4 C 1.2698 2.2692 0.0 0
M  V30 5 C -1.3286 3.7742 0.0 0
M  V30 6 C 1.258 3.7742 0.0 0
M  V30 7 C 2.5514 1.5285 0.0 0
M  V30 8 N -0.047 4.5385 0.0 0
M  V30 9 C -2.6337 4.5385 0.0 0
M  V30 10 C 2.5397 4.5385 0.0 0
M  V30 11 C 3.833 2.2927 0.0 0
M  V30 12 N -3.9389 3.7978 0.0 0
M  V30 13 C 3.8213 3.7978 0.0 0
M  V30 14 C -5.244 4.562 0.0 0
M  V30 END ATOM
M  V30 BEGIN BOND
M  V30 1 2 1 2
M  V30 2 1 2 3
M  V30 3 1 2 4
M  V30 4 1 3 5
M  V30 5 2 4 6
M  V30 6 1 4 7
M  V30 7 2 5 8
M  V30 8 1 5 9
M  V30 9 1 6 10
M  V30 10 2 7 11
M  V30 11 1 9 12
M  V30 12 2 10 13
M  V30 13 1 12 14
M  V30 14 1 6 8
M  V30 15 1 11 13
M  V30 END BOND
M  V30 END CTAB
M  END
>  <Structure No>
143

>  <Catalog ID>
Z44507989

>  <MW (desalted)>
189.214

>  <ClogP>
-0.327

>  <HBD>
2

>  <TPSA>
53.490

>  <RotBonds>
2

>  <Target>
Poly [ADP-ribose] polymerase-1

>  <fromRegid>
CHEMBL395092

>  <Similarity>
0.89

$$$$
Compound 144
Actelion Java MolfileCreator 2.0

  0  0  0  0  0  0              0 V3000
M  V30 BEGIN CTAB
M  V30 COUNTS 14 15 0 0 0
M  V30 BEGIN ATOM
M  V30 1 O 0.0 0.0 0.0 0
M  V30 2 C 1.2933 0.7712 0.0 0
M  V30 3 C -1.3171 0.7712 0.0 0
M  V30 4 C 2.5867 0.0237 0.0 0
M  V30 5 N 3.8801 0.795 0.0 0
M  V30 6 C 5.1735 0.0474 0.0 0
M  V30 7 N 6.4669 0.8187 0.0 0
M  V30 8 C 5.1617 -1.4476 0.0 0
M  V30 9 C 7.7603 0.0711 0.0 0
M  V30 10 N 4.0344 -2.4443 0.0 0
M  V30 11 C 6.4551 -2.1833 0.0 0
M  V30 12 N 7.7484 -1.4239 0.0 0
M  V30 13 C 4.6396 -3.8089 0.0 0
M  V30 14 N 6.1347 -3.6428 0.0 0
M  V30 END ATOM
M  V30 BEGIN BOND
M  V30 1 1 1 2
M  V30 2 1 1 3
M  V30 3 1 2 4
M  V30 4 1 4 5
M  V30 5 1 5 6
M  V30 6 2 6 7
M  V30 7 1 6 8
M  V30 8 1 7 9
M  V30 9 1 8 10
M  V30 10 2 8 11
M  V30 11 2 9 12
M  V30 12 2 10 13
M  V30 13 1 11 14
M  V30 14 1 11 12
M  V30 15 1 13 14
M  V30 END BOND
M  V30 END CTAB
M  END
>  <Structure No>
144

>  <Catalog ID>
Z57745220

>  <MW (desalted)>
193.206

>  <ClogP>
0.681

>  <HBD>
2

>  <TPSA>
75.720

>  <RotBonds>
4

>  <Target>
Serine/threonine-protein kinase Chk1

>  <fromRegid>
CHEMBL271138

>  <Similarity>
0.87

$$$$
Compound 145
Actelion Java MolfileCreator 2.0

  0  0  0  0  0  0              0 V3000
M  V30 BEGIN CTAB
M  V30 COUNTS 14 15 0 0 0
M  V30 BEGIN ATOM
M  V30 1 O 0.0 0.0 0.0 0
M  V30 2 C -0.0118 -1.489 0.0 0
M  V30 3 N 1.2763 -2.2217 0.0 0
M  V30 4 C -1.3236 -2.2217 0.0 0
M  V30 5 C 1.2645 -3.7108 0.0 0
M  V30 6 C -1.3354 -3.7108 0.0 0
M  V30 7 C -2.6353 -1.4654 0.0 0
M  V30 8 N -0.0472 -4.4553 0.0 0
M  V30 9 C -2.6472 -4.4553 0.0 0
M  V30 10 C -3.9471 -2.1981 0.0 0
M  V30 11 C -3.959 -3.6871 0.0 0
M  V30 12 C -5.2707 -4.4317 0.0 0
M  V30 13 O -6.5825 -3.6635 0.0 0
M  V30 14 O -5.2826 -5.9207 0.0 0
M  V30 END ATOM
M  V30 BEGIN BOND
M  V30 1 2 1 2
M  V30 2 1 2 3
M  V30 3 1 2 4
M  V30 4 1 3 5
M  V30 5 2 4 6
M  V30 6 1 4 7
M  V30 7 2 5 8
M  V30 8 1 6 9
M  V30 9 2 7 10
M  V30 10 2 9 11
M  V30 11 1 11 12
M  V30 12 2 12 13
M  V30 13 1 12 14
M  V30 14 1 6 8
M  V30 15 1 10 11
M  V30 END BOND
M  V30 END CTAB
M  END
>  <Structure No>
145

>  <Catalog ID>
Z425007872

>  <MW (desalted)>
190.156

>  <ClogP>
0.397

>  <HBD>
2

>  <TPSA>
78.760

>  <RotBonds>
1

>  <Target>
Poly [ADP-ribose] polymerase-1

>  <fromRegid>
CHEMBL1949851

>  <Similarity>
0.85

$$$$
Compound 146
Actelion Java MolfileCreator 2.0

  0  0  0  0  0  0              0 V3000
M  V30 BEGIN CTAB
M  V30 COUNTS 14 16 0 0 0
M  V30 BEGIN ATOM
M  V30 1 N 0.0 0.0 0.0 0
M  V30 2 C -1.3054 0.7526 0.0 0
M  V30 3 C -0.0117 -1.4818 0.0 0
M  V30 4 N -1.3171 2.258 0.0 0
M  V30 5 C -2.6108 0.0235 0.0 0
M  V30 6 N -1.3171 -2.2109 0.0 0
M  V30 7 C -2.5402 3.1518 0.0 0
M  V30 8 C -0.1176 3.1518 0.0 0
M  V30 9 N -4.0456 0.4939 0.0 0
M  V30 10 C -2.6226 -1.4583 0.0 0
M  V30 11 C -2.0933 4.5866 0.0 0
M  V30 12 C -0.588 4.5866 0.0 0
M  V30 13 C -4.9394 -0.7056 0.0 0
M  V30 14 N -4.0574 -1.9052 0.0 0
M  V30 END ATOM
M  V30 BEGIN BOND
M  V30 1 2 1 2
M  V30 2 1 1 3
M  V30 3 1 2 4
M  V30 4 1 2 5
M  V30 5 2 3 6
M  V30 6 1 4 7
M  V30 7 1 4 8
M  V30 8 1 5 9
M  V30 9 2 5 10
M  V30 10 1 7 11
M  V30 11 1 8 12
M  V30 12 2 9 13
M  V30 13 1 10 14
M  V30 14 1 6 10
M  V30 15 1 11 12
M  V30 16 1 13 14
M  V30 END BOND
M  V30 END CTAB
M  END
>  <Structure No>
146

>  <Catalog ID>
Z57745260

>  <MW (desalted)>
189.217

>  <ClogP>
0.852

>  <HBD>
1

>  <TPSA>
57.700

>  <RotBonds>
1

>  <Target>
Serine/threonine-protein kinase Chk2

>  <fromRegid>
CHEMBL2420911

>  <Similarity>
0.87

$$$$
Compound 147
Actelion Java MolfileCreator 2.0

  0  0  0  0  0  0              0 V3000
M  V30 BEGIN CTAB
M  V30 COUNTS 14 16 0 0 0
M  V30 BEGIN ATOM
M  V30 1 O 0.0 0.0 0.0 0
M  V30 2 C -0.0117 1.5072 0.0 0
M  V30 3 N -1.3188 2.2725 0.0 0
M  V30 4 C 1.2717 2.2725 0.0 0
M  V30 5 C -1.3305 3.7797 0.0 0
M  V30 6 C 1.2599 3.7797 0.0 0
M  V30 7 C 2.5551 1.5307 0.0 0
M  V30 8 N -0.0471 4.5333 0.0 0
M  V30 9 C -2.6376 4.5333 0.0 0
M  V30 10 C 2.5434 4.5333 0.0 0
M  V30 11 C 3.8386 2.2961 0.0 0
M  V30 12 C -4.1448 4.5451 0.0 0
M  V30 13 C -3.3912 5.8404 0.0 0
M  V30 14 C 3.8268 3.8033 0.0 0
M  V30 END ATOM
M  V30 BEGIN BOND
M  V30 1 2 1 2
M  V30 2 1 2 3
M  V30 3 1 2 4
M  V30 4 1 3 5
M  V30 5 2 4 6
M  V30 6 1 4 7
M  V30 7 2 5 8
M  V30 8 1 5 9
M  V30 9 1 6 10
M  V30 10 2 7 11
M  V30 11 1 9 12
M  V30 12 1 9 13
M  V30 13 2 10 14
M  V30 14 1 6 8
M  V30 15 1 11 14
M  V30 16 1 12 13
M  V30 END BOND
M  V30 END CTAB
M  END
>  <Structure No>
147

>  <Catalog ID>
Z790346658

>  <MW (desalted)>
186.210

>  <ClogP>
1.248

>  <HBD>
1

>  <TPSA>
41.460

>  <RotBonds>
1

>  <Target>
Poly [ADP-ribose] polymerase-1

>  <fromRegid>
CHEMBL2377256

>  <Similarity>
0.9

$$$$
Compound 148
Actelion Java MolfileCreator 2.0

  0  0  0  0  0  0              0 V3000
M  V30 BEGIN CTAB
M  V30 COUNTS 14 16 0 0 0
M  V30 BEGIN ATOM
M  V30 1 O 0.0 0.0 0.0 0
M  V30 2 C 0.7841 -1.2712 0.0 0
M  V30 3 N 2.2811 -1.2118 0.0 0
M  V30 4 C 0.0594 -2.59 0.0 0
M  V30 5 C 3.0652 -2.483 0.0 0
M  V30 6 N 0.8435 -3.8612 0.0 0
M  V30 7 C -1.4138 -2.9345 0.0 0
M  V30 8 C 2.3405 -3.8018 0.0 0
M  V30 9 C 4.5622 -2.4236 0.0 0
M  V30 10 C -0.1425 -5.0018 0.0 0
M  V30 11 C -1.5326 -4.4315 0.0 0
M  V30 12 C 3.1246 -5.073 0.0 0
M  V30 13 C 5.3463 -3.6949 0.0 0
M  V30 14 C 4.6216 -5.0136 0.0 0
M  V30 END ATOM
M  V30 BEGIN BOND
M  V30 1 2 1 2
M  V30 2 1 2 3
M  V30 3 1 2 4
M  V30 4 1 3 5
M  V30 5 1 4 6
M  V30 6 2 4 7
M  V30 7 2 5 8
M  V30 8 1 5 9
M  V30 9 1 6 10
M  V30 10 1 7 11
M  V30 11 1 8 12
M  V30 12 2 9 13
M  V30 13 2 12 14
M  V30 14 1 6 8
M  V30 15 2 10 11
M  V30 16 1 13 14
M  V30 END BOND
M  V30 END CTAB
M  END
>  <Structure No>
148

>  <Catalog ID>
Z1198153145

>  <MW (desalted)>
184.194

>  <ClogP>
1.812

>  <HBD>
1

>  <TPSA>
34.030

>  <RotBonds>
0

>  <Target>
Poly [ADP-ribose] polymerase-1

>  <fromRegid>
CHEMBL555751

>  <Similarity>
1.0

$$$$
Compound 149
Actelion Java MolfileCreator 2.0

  0  0  0  0  0  0              0 V3000
M  V30 BEGIN CTAB
M  V30 COUNTS 14 15 0 0 0
M  V30 BEGIN ATOM
M  V30 1 O 0.0 0.0 0.0 0
M  V30 2 C 0.3196 -1.4559 0.0 0
M  V30 3 N 1.7755 -1.7755 0.0 0
M  V30 4 C -0.8641 -2.3792 0.0 0
M  V30 5 C 2.4147 -3.1131 0.0 0
M  V30 6 C -0.8759 -3.8707 0.0 0
M  V30 7 C -2.178 -1.6098 0.0 0
M  V30 8 C 1.7518 -4.4507 0.0 0
M  V30 9 C -2.1898 -4.6164 0.0 0
M  V30 10 C 0.284 -4.794 0.0 0
M  V30 11 C -3.4919 -2.3555 0.0 0
M  V30 12 C -3.5037 -3.847 0.0 0
M  V30 13 O -4.8176 -4.5927 0.0 0
M  V30 14 C -4.8295 -6.0842 0.0 0
M  V30 END ATOM
M  V30 BEGIN BOND
M  V30 1 2 1 2
M  V30 2 1 2 3
M  V30 3 1 2 4
M  V30 4 1 3 5
M  V30 5 2 4 6
M  V30 6 1 4 7
M  V30 7 1 5 8
M  V30 8 1 6 9
M  V30 9 1 6 10
M  V30 10 2 7 11
M  V30 11 2 9 12
M  V30 12 1 12 13
M  V30 13 1 13 14
M  V30 14 1 8 10
M  V30 15 1 11 12
M  V30 END BOND
M  V30 END CTAB
M  END
>  <Structure No>
149

>  <Catalog ID>
Z1198154509

>  <MW (desalted)>
191.226

>  <ClogP>
1.606

>  <HBD>
1

>  <TPSA>
38.330

>  <RotBonds>
1

>  <Target>
Poly [ADP-ribose] polymerase-1

>  <fromRegid>
CHEMBL3629677

>  <Similarity>
0.88

$$$$
Compound 150
Actelion Java MolfileCreator 2.0

  0  0  0  0  0  0              0 V3000
M  V30 BEGIN CTAB
M  V30 COUNTS 14 16 0 0 0
M  V30 BEGIN ATOM
M  V30 1 S 0.0 0.0 0.0 0
M  V30 2 C -1.4577 0.3644 0.0 0
M  V30 3 C 0.094 -1.4812 0.0 0
M  V30 4 N -2.1748 1.6928 0.0 0
M  V30 5 C -2.2571 -0.8934 0.0 0
M  V30 6 C -1.3048 -2.0337 0.0 0
M  V30 7 C -3.6795 1.7516 0.0 0
M  V30 8 C -3.7618 -0.8346 0.0 0
M  V30 9 O -4.3966 3.08 0.0 0
M  V30 10 C -4.4789 0.4937 0.0 0
M  V30 11 C -4.5612 -2.0925 0.0 0
M  V30 12 C -5.9836 0.5525 0.0 0
M  V30 13 C -6.0659 -2.0337 0.0 0
M  V30 14 C -6.783 -0.7053 0.0 0
M  V30 END ATOM
M  V30 BEGIN BOND
M  V30 1 1 1 2
M  V30 2 1 1 3
M  V30 3 1 2 4
M  V30 4 2 2 5
M  V30 5 2 3 6
M  V30 6 1 4 7
M  V30 7 1 5 8
M  V30 8 2 7 9
M  V30 9 1 7 10
M  V30 10 1 8 11
M  V30 11 1 10 12
M  V30 12 2 11 13
M  V30 13 2 12 14
M  V30 14 1 5 6
M  V30 15 2 8 10
M  V30 16 1 13 14
M  V30 END BOND
M  V30 END CTAB
M  END
>  <Structure No>
150

>  <Catalog ID>
Z1269205479

>  <MW (desalted)>
201.244

>  <ClogP>
2.003

>  <HBD>
1

>  <TPSA>
29.100

>  <RotBonds>
0

>  <Target>
Poly [ADP-ribose] polymerase-1

>  <fromRegid>
CHEMBL3108871

>  <Similarity>
1.0

$$$$
Compound 151
Actelion Java MolfileCreator 2.0

  0  0  0  0  0  0              0 V3000
M  V30 BEGIN CTAB
M  V30 COUNTS 14 15 0 0 0
M  V30 BEGIN ATOM
M  V30 1 S 0.0 0.0 0.0 0
M  V30 2 C 1.4244 -0.451 0.0 0
M  V30 3 C -0.9021 -1.2107 0.0 0
M  V30 4 N 2.7183 0.3205 0.0 0
M  V30 5 N 1.4125 -1.9467 0.0 0
M  V30 6 C -0.0237 -2.4215 0.0 0
M  V30 7 C 4.0122 -0.4273 0.0 0
M  V30 8 C 2.7064 -2.6946 0.0 0
M  V30 9 C -0.4985 -3.846 0.0 0
M  V30 10 C 4.0003 -1.923 0.0 0
M  V30 11 O 2.6946 -4.1902 0.0 0
M  V30 12 C 5.2942 -2.6708 0.0 0
M  V30 13 O 6.5881 -1.8992 0.0 0
M  V30 14 O 5.2823 -4.1665 0.0 0
M  V30 END ATOM
M  V30 BEGIN BOND
M  V30 1 1 1 2
M  V30 2 1 1 3
M  V30 3 2 2 4
M  V30 4 1 2 5
M  V30 5 2 3 6
M  V30 6 1 4 7
M  V30 7 1 5 8
M  V30 8 1 6 9
M  V30 9 2 7 10
M  V30 10 2 8 11
M  V30 11 1 10 12
M  V30 12 2 12 13
M  V30 13 1 12 14
M  V30 14 1 5 6
M  V30 15 1 8 10
M  V30 END BOND
M  V30 END CTAB
M  END
>  <Structure No>
151

>  <Catalog ID>
Z1269235931

>  <MW (desalted)>
210.210

>  <ClogP>
0.635

>  <HBD>
1

>  <TPSA>
69.970

>  <RotBonds>
1

>  <Target>
Serine/threonine-protein kinase Chk1

>  <fromRegid>
CHEMBL1971679

>  <Similarity>
0.9

$$$$
Compound 152
Actelion Java MolfileCreator 2.0

  0  0  0  0  0  0              0 V3000
M  V30 BEGIN CTAB
M  V30 COUNTS 14 15 0 0 0
M  V30 BEGIN ATOM
M  V30 1 O 0.0 0.0 0.0 0
M  V30 2 C 0.4477 1.4375 0.0 0
M  V30 3 N -0.4477 2.663 0.0 0
M  V30 4 C 1.8617 1.9088 0.0 0
M  V30 5 C 0.4241 3.8884 0.0 0
M  V30 6 C -1.956 2.6748 0.0 0
M  V30 7 C 1.8499 3.4171 0.0 0
M  V30 8 C 3.1461 1.1665 0.0 0
M  V30 9 O -0.0471 5.326 0.0 0
M  V30 10 C 3.1343 4.183 0.0 0
M  V30 11 C 4.4305 1.9324 0.0 0
M  V30 12 C 4.4187 3.4525 0.0 0
M  V30 13 C 5.7148 1.1901 0.0 0
M  V30 14 N 6.9992 1.956 0.0 0
M  V30 END ATOM
M  V30 BEGIN BOND
M  V30 1 2 1 2
M  V30 2 1 2 3
M  V30 3 1 2 4
M  V30 4 1 3 5
M  V30 5 1 3 6
M  V30 6 2 4 7
M  V30 7 1 4 8
M  V30 8 2 5 9
M  V30 9 1 7 10
M  V30 10 2 8 11
M  V30 11 2 10 12
M  V30 12 1 11 13
M  V30 13 1 13 14
M  V30 14 1 5 7
M  V30 15 1 11 12
M  V30 END BOND
M  V30 END CTAB
M  END
>  <Structure No>
152

>  <Catalog ID>
Z1416185658

>  <MW (desalted)>
190.199

>  <ClogP>
0.466

>  <HBD>
1

>  <TPSA>
63.400

>  <RotBonds>
1

>  <Target>
Poly [ADP-ribose] polymerase-1

>  <fromRegid>
CHEMBL611975

>  <Similarity>
0.95

$$$$
Compound 153
Actelion Java MolfileCreator 2.0

  0  0  0  0  0  0              0 V3000
M  V30 BEGIN CTAB
M  V30 COUNTS 14 15 0 0 0
M  V30 BEGIN ATOM
M  V30 1 F 0.0 0.0 0.0 0
M  V30 2 C 1.2944 -0.7481 0.0 0
M  V30 3 C 1.2825 -2.2444 0.0 0
M  V30 4 C 2.5888 0.0237 0.0 0
M  V30 5 C 2.5769 -2.9926 0.0 0
M  V30 6 C 3.8832 -0.7244 0.0 0
M  V30 7 C 3.8713 -2.2207 0.0 0
M  V30 8 C 2.565 -4.4889 0.0 0
M  V30 9 C 5.1776 0.0475 0.0 0
M  V30 10 N 5.1658 -2.9688 0.0 0
M  V30 11 O 3.8595 -5.237 0.0 0
M  V30 12 N 1.2469 -5.237 0.0 0
M  V30 13 C 6.4721 -0.7006 0.0 0
M  V30 14 C 6.4602 -2.1969 0.0 0
M  V30 END ATOM
M  V30 BEGIN BOND
M  V30 1 1 1 2
M  V30 2 1 2 3
M  V30 3 2 2 4
M  V30 4 2 3 5
M  V30 5 1 4 6
M  V30 6 1 5 7
M  V30 7 1 5 8
M  V30 8 2 6 9
M  V30 9 2 7 10
M  V30 10 2 8 11
M  V30 11 1 8 12
M  V30 12 1 9 13
M  V30 13 1 10 14
M  V30 14 1 6 7
M  V30 15 2 13 14
M  V30 END BOND
M  V30 END CTAB
M  END
>  <Structure No>
153

>  <Catalog ID>
Z1416163215

>  <MW (desalted)>
190.174

>  <ClogP>
1.227

>  <HBD>
1

>  <TPSA>
55.980

>  <RotBonds>
1

>  <Target>
Poly [ADP-ribose] polymerase-1

>  <fromRegid>
CHEMBL502330

>  <Similarity>
0.86

$$$$
Compound 154
Actelion Java MolfileCreator 2.0

  0  0  0  0  0  0              0 V3000
M  V30 BEGIN CTAB
M  V30 COUNTS 14 15 0 0 0
M  V30 BEGIN ATOM
M  V30 1 O 0.0 0.0 0.0 0
M  V30 2 C -1.3063 0.7649 0.0 0
M  V30 3 O -2.6126 0.0235 0.0 0
M  V30 4 C -1.318 2.2713 0.0 0
M  V30 5 C -0.0353 3.0362 0.0 0
M  V30 6 C -2.6243 3.0362 0.0 0
M  V30 7 C -0.047 4.5426 0.0 0
M  V30 8 C 1.2474 2.2948 0.0 0
M  V30 9 C -2.6361 4.5426 0.0 0
M  V30 10 C 1.2356 5.3075 0.0 0
M  V30 11 C -1.3533 5.3075 0.0 0
M  V30 12 N 2.5302 3.0598 0.0 0
M  V30 13 C 2.5184 4.5661 0.0 0
M  V30 14 O 3.8012 5.3311 0.0 0
M  V30 END ATOM
M  V30 BEGIN BOND
M  V30 1 2 1 2
M  V30 2 1 2 3
M  V30 3 1 2 4
M  V30 4 1 4 5
M  V30 5 2 4 6
M  V30 6 1 5 7
M  V30 7 2 5 8
M  V30 8 1 6 9
M  V30 9 2 7 10
M  V30 10 1 7 11
M  V30 11 1 8 12
M  V30 12 1 10 13
M  V30 13 1 13 14
M  V30 14 2 9 11
M  V30 15 2 12 13
M  V30 END BOND
M  V30 END CTAB
M  END
>  <Structure No>
154

>  <Catalog ID>
Z1486032512

>  <MW (desalted)>
189.167

>  <ClogP>
2.196

>  <HBD>
2

>  <TPSA>
70.420

>  <RotBonds>
1

>  <Target>
Poly [ADP-ribose] polymerase-1

>  <fromRegid>
CHEMBL45072

>  <Similarity>
0.85

$$$$
Compound 155
Actelion Java MolfileCreator 2.0

  0  0  0  0  0  0              0 V3000
M  V30 BEGIN CTAB
M  V30 COUNTS 14 16 0 0 0
M  V30 BEGIN ATOM
M  V30 1 O 0.0 0.0 0.0 0
M  V30 2 C 0.7003 -1.3175 0.0 0
M  V30 3 N 2.1959 -1.3531 0.0 0
M  V30 4 C -0.1068 -2.5876 0.0 0
M  V30 5 C 2.8962 -2.6707 0.0 0
M  V30 6 C 0.5934 -3.9051 0.0 0
M  V30 7 C -1.6261 -2.5282 0.0 0
M  V30 8 N 2.089 -3.9407 0.0 0
M  V30 9 C 4.3443 -3.0149 0.0 0
M  V30 10 C -0.2136 -5.1752 0.0 0
M  V30 11 C -2.4333 -3.7983 0.0 0
M  V30 12 N 3.0505 -5.0802 0.0 0
M  V30 13 C 4.4393 -4.5105 0.0 0
M  V30 14 C -1.7329 -5.1159 0.0 0
M  V30 END ATOM
M  V30 BEGIN BOND
M  V30 1 2 1 2
M  V30 2 1 2 3
M  V30 3 1 2 4
M  V30 4 1 3 5
M  V30 5 2 4 6
M  V30 6 1 4 7
M  V30 7 1 5 8
M  V30 8 2 5 9
M  V30 9 1 6 10
M  V30 10 2 7 11
M  V30 11 1 8 12
M  V30 12 1 9 13
M  V30 13 2 10 14
M  V30 14 1 6 8
M  V30 15 1 11 14
M  V30 16 2 12 13
M  V30 END BOND
M  V30 END CTAB
M  END
>  <Structure No>
155

>  <Catalog ID>
Z1509204240

>  <MW (desalted)>
185.182

>  <ClogP>
0.870

>  <HBD>
1

>  <TPSA>
46.920

>  <RotBonds>
0

>  <Target>
Poly [ADP-ribose] polymerase-1

>  <fromRegid>
CHEMBL551657

>  <Similarity>
0.9

$$$$
Compound 156
Actelion Java MolfileCreator 2.0

  0  0  0  0  0  0              0 V3000
M  V30 BEGIN CTAB
M  V30 COUNTS 14 15 0 0 0
M  V30 BEGIN ATOM
M  V30 1 O 0.0 0.0 0.0 0
M  V30 2 C -0.0117 1.507 0.0 0
M  V30 3 N -1.3186 2.2723 0.0 0
M  V30 4 C 1.2716 2.2723 0.0 0
M  V30 5 C -1.3304 3.7794 0.0 0
M  V30 6 C -2.6256 1.5306 0.0 0
M  V30 7 C 1.2598 3.7794 0.0 0
M  V30 8 C 2.5549 1.5306 0.0 0
M  V30 9 N -0.047 4.5447 0.0 0
M  V30 10 C -2.6373 4.5447 0.0 0
M  V30 11 C -2.6373 0.047 0.0 0
M  V30 12 C 2.5432 4.5447 0.0 0
M  V30 13 C 3.8383 2.2959 0.0 0
M  V30 14 C 3.8265 3.803 0.0 0
M  V30 END ATOM
M  V30 BEGIN BOND
M  V30 1 2 1 2
M  V30 2 1 2 3
M  V30 3 1 2 4
M  V30 4 1 3 5
M  V30 5 1 3 6
M  V30 6 2 4 7
M  V30 7 1 4 8
M  V30 8 2 5 9
M  V30 9 1 5 10
M  V30 10 1 6 11
M  V30 11 1 7 12
M  V30 12 2 8 13
M  V30 13 2 12 14
M  V30 14 1 7 9
M  V30 15 1 13 14
M  V30 END BOND
M  V30 END CTAB
M  END
>  <Structure No>
156

>  <Catalog ID>
Z214617946

>  <MW (desalted)>
188.226

>  <ClogP>
1.675

>  <HBD>
0

>  <TPSA>
32.670

>  <RotBonds>
1

>  <Target>
Poly [ADP-ribose] polymerase-1

>  <fromRegid>
CHEMBL395092

>  <Similarity>
0.88

$$$$
Compound 157
Actelion Java MolfileCreator 2.0

  0  0  0  0  0  0              0 V3000
M  V30 BEGIN CTAB
M  V30 COUNTS 14 15 0 0 0
M  V30 BEGIN ATOM
M  V30 1 O 0.0 0.0 0.0 0
M  V30 2 C -1.312 -0.7328 0.0 0
M  V30 3 N -2.6241 0.0236 0.0 0
M  V30 4 C -1.3238 -2.2222 0.0 0
M  V30 5 C -2.6359 1.5366 0.0 0
M  V30 6 C -3.9361 -0.7092 0.0 0
M  V30 7 C -2.6359 -2.9551 0.0 0
M  V30 8 C -0.0354 -2.9551 0.0 0
M  V30 9 N -4.078 -2.4822 0.0 0
M  V30 10 C -2.6477 -4.4444 0.0 0
M  V30 11 C -0.0472 -4.4444 0.0 0
M  V30 12 N -4.9763 -3.6879 0.0 0
M  V30 13 C -1.3593 -5.1773 0.0 0
M  V30 14 C -4.0898 -4.8936 0.0 0
M  V30 END ATOM
M  V30 BEGIN BOND
M  V30 1 2 1 2
M  V30 2 1 2 3
M  V30 3 1 2 4
M  V30 4 1 3 5
M  V30 5 1 3 6
M  V30 6 2 4 7
M  V30 7 1 4 8
M  V30 8 1 7 9
M  V30 9 1 7 10
M  V30 10 2 8 11
M  V30 11 1 9 12
M  V30 12 2 10 13
M  V30 13 1 10 14
M  V30 14 1 11 13
M  V30 15 2 12 14
M  V30 END BOND
M  V30 END CTAB
M  END
>  <Structure No>
157

>  <Catalog ID>
Z332751028

>  <MW (desalted)>
189.214

>  <ClogP>
0.568

>  <HBD>
1

>  <TPSA>
48.990

>  <RotBonds>
1

>  <Target>
Serine/threonine-protein kinase Chk1

>  <fromRegid>
CHEMBL451401

>  <Similarity>
0.85

$$$$
Compound 158
Actelion Java MolfileCreator 2.0

  0  0  0  0  0  0              0 V3000
M  V30 BEGIN CTAB
M  V30 COUNTS 15 16 0 0 0
M  V30 BEGIN ATOM
M  V30 1 O 0.0 0.0 0.0 0
M  V30 2 C -1.3159 -0.735 0.0 0
M  V30 3 C -1.3277 -2.2287 0.0 0
M  V30 4 C -2.6318 0.0237 0.0 0
M  V30 5 C -0.0355 -2.9756 0.0 0
M  V30 6 C -2.6437 -2.9756 0.0 0
M  V30 7 C -0.0474 -4.4694 0.0 0
M  V30 8 C -2.6555 -4.4694 0.0 0
M  V30 9 C -1.3633 -5.2163 0.0 0
M  V30 10 N -1.3752 -6.71 0.0 0
M  V30 11 C -0.0829 -7.445 0.0 0
M  V30 12 C -2.6911 -7.445 0.0 0
M  V30 13 C -0.0948 -8.9388 0.0 0
M  V30 14 C -2.7029 -8.9388 0.0 0
M  V30 15 O -1.4107 -9.6857 0.0 0
M  V30 END ATOM
M  V30 BEGIN BOND
M  V30 1 2 1 2
M  V30 2 1 2 3
M  V30 3 1 2 4
M  V30 4 2 3 5
M  V30 5 1 3 6
M  V30 6 1 5 7
M  V30 7 2 6 8
M  V30 8 2 7 9
M  V30 9 1 9 10
M  V30 10 1 10 11
M  V30 11 1 10 12
M  V30 12 1 11 13
M  V30 13 1 12 14
M  V30 14 1 13 15
M  V30 15 1 8 9
M  V30 16 1 14 15
M  V30 END BOND
M  V30 END CTAB
M  END
>  <Structure No>
158

>  <Catalog ID>
Z56899083

>  <MW (desalted)>
205.253

>  <ClogP>
1.348

>  <HBD>
0

>  <TPSA>
29.540

>  <RotBonds>
2

>  <Target>
DNA-dependent protein kinase

>  <fromRegid>
CHEMBL1317546

>  <Similarity>
0.85

$$$$
Compound 159
Actelion Java MolfileCreator 2.0

  0  0  0  0  0  0              0 V3000
M  V30 BEGIN CTAB
M  V30 COUNTS 15 16 0 0 0
M  V30 BEGIN ATOM
M  V30 1 O 0.0 0.0 0.0 0
M  V30 2 C -0.0117 1.4998 0.0 0
M  V30 3 N 1.2655 2.2615 0.0 0
M  V30 4 C -1.3124 2.2615 0.0 0
M  V30 5 C 1.2538 3.7614 0.0 0
M  V30 6 C -1.3241 3.7614 0.0 0
M  V30 7 C -2.613 1.5233 0.0 0
M  V30 8 C -0.0468 4.5231 0.0 0
M  V30 9 C -2.6248 4.5231 0.0 0
M  V30 10 C -3.9137 2.2849 0.0 0
M  V30 11 C -3.9254 3.7848 0.0 0
M  V30 12 O -5.2144 1.5467 0.0 0
M  V30 13 O -5.2261 4.5465 0.0 0
M  V30 14 C -6.5151 2.3084 0.0 0
M  V30 15 C -6.5268 3.8083 0.0 0
M  V30 END ATOM
M  V30 BEGIN BOND
M  V30 1 2 1 2
M  V30 2 1 2 3
M  V30 3 1 2 4
M  V30 4 1 3 5
M  V30 5 2 4 6
M  V30 6 1 4 7
M  V30 7 1 5 8
M  V30 8 1 6 9
M  V30 9 2 7 10
M  V30 10 2 9 11
M  V30 11 1 10 12
M  V30 12 1 11 13
M  V30 13 1 12 14
M  V30 14 1 13 15
M  V30 15 1 6 8
M  V30 16 1 10 11
M  V30 END BOND
M  V30 END CTAB
M  END
>  <Structure No>
159

>  <Catalog ID>
Z94602405

>  <MW (desalted)>
207.226

>  <ClogP>
0.875

>  <HBD>
1

>  <TPSA>
47.560

>  <RotBonds>
2

>  <Target>
Poly [ADP-ribose] polymerase-1

>  <fromRegid>
CHEMBL3629677

>  <Similarity>
0.93

$$$$
Compound 160
Actelion Java MolfileCreator 2.0

  0  0  0  0  0  0              0 V3000
M  V30 BEGIN CTAB
M  V30 COUNTS 15 17 0 0 0
M  V30 BEGIN ATOM
M  V30 1 S 0.0 0.0 0.0 0
M  V30 2 C -1.2193 -0.8996 0.0 0
M  V30 3 C 1.2193 -0.8523 0.0 0
M  V30 4 N -2.7109 -0.6037 0.0 0
M  V30 5 C -0.7457 -2.3084 0.0 0
M  V30 6 C 0.7694 -2.2847 0.0 0
M  V30 7 C 2.6043 -0.2841 0.0 0
M  V30 8 C -3.7171 -1.7283 0.0 0
M  V30 9 C -1.752 -3.433 0.0 0
M  V30 10 C 1.6099 -3.5159 0.0 0
M  V30 11 C 3.8947 -1.018 0.0 0
M  V30 12 N -3.2436 -3.137 0.0 0
M  V30 13 O -1.2785 -4.8417 0.0 0
M  V30 14 C 3.1015 -3.6106 0.0 0
M  V30 15 C 4.1078 -2.4978 0.0 0
M  V30 END ATOM
M  V30 BEGIN BOND
M  V30 1 1 1 2
M  V30 2 1 1 3
M  V30 3 1 2 4
M  V30 4 2 2 5
M  V30 5 2 3 6
M  V30 6 1 3 7
M  V30 7 2 4 8
M  V30 8 1 5 9
M  V30 9 1 6 10
M  V30 10 1 7 11
M  V30 11 1 8 12
M  V30 12 2 9 13
M  V30 13 1 10 14
M  V30 14 1 11 15
M  V30 15 1 5 6
M  V30 16 1 9 12
M  V30 17 1 14 15
M  V30 END BOND
M  V30 END CTAB
M  END
>  <Structure No>
160

>  <Catalog ID>
Z56758245

>  <MW (desalted)>
220.291

>  <ClogP>
2.255

>  <HBD>
1

>  <TPSA>
41.460

>  <RotBonds>
0

>  <Target>
Serine/threonine-protein kinase Chk1

>  <fromRegid>
CHEMBL539906

>  <Similarity>
0.99

$$$$
Compound 161
Actelion Java MolfileCreator 2.0

  0  0  0  0  0  0              0 V3000
M  V30 BEGIN CTAB
M  V30 COUNTS 15 17 0 0 0
M  V30 BEGIN ATOM
M  V30 1 S 0.0 0.0 0.0 0
M  V30 2 C -1.223 0.8884 0.0 0
M  V30 3 C 1.2 0.8884 0.0 0
M  V30 4 N -2.7 0.5884 0.0 0
M  V30 5 C -0.773 2.3192 0.0 0
M  V30 6 C 0.7269 2.3192 0.0 0
M  V30 7 C 2.6538 0.5884 0.0 0
M  V30 8 C -3.7154 1.7077 0.0 0
M  V30 9 C -1.7884 3.4384 0.0 0
M  V30 10 C 1.7192 3.4384 0.0 0
M  V30 11 C 3.6461 1.7077 0.0 0 CFG=2
M  V30 12 N -3.2654 3.1384 0.0 0
M  V30 13 O -1.3384 4.8692 0.0 0
M  V30 14 C 3.173 3.1384 0.0 0
M  V30 15 C 5.1 1.4077 0.0 0
M  V30 END ATOM
M  V30 BEGIN BOND
M  V30 1 1 1 2
M  V30 2 1 1 3
M  V30 3 1 2 4
M  V30 4 2 2 5
M  V30 5 2 3 6
M  V30 6 1 3 7
M  V30 7 2 4 8
M  V30 8 1 5 9
M  V30 9 1 6 10
M  V30 10 1 7 11
M  V30 11 1 8 12
M  V30 12 2 9 13
M  V30 13 1 10 14
M  V30 14 1 11 15 CFG=3
M  V30 15 1 5 6
M  V30 16 1 9 12
M  V30 17 1 11 14
M  V30 END BOND
M  V30 BEGIN COLLECTION
M  V30 MDLV30/STERAC1 ATOMS=(1 11)
M  V30 END COLLECTION
M  V30 END CTAB
M  END
>  <Structure No>
161

>  <Catalog ID>
Z56876394

>  <MW (desalted)>
220.291

>  <ClogP>
2.215

>  <HBD>
1

>  <TPSA>
41.460

>  <RotBonds>
0

>  <Target>
Serine/threonine-protein kinase Chk1

>  <fromRegid>
CHEMBL539906

>  <Similarity>
0.97

$$$$
Compound 162
Actelion Java MolfileCreator 2.0

  0  0  0  0  0  0              0 V3000
M  V30 BEGIN CTAB
M  V30 COUNTS 15 17 0 0 0
M  V30 BEGIN ATOM
M  V30 1 O 0.0 0.0 0.0 0
M  V30 2 C 0.7769 1.2831 0.0 0
M  V30 3 N 0.0588 2.6134 0.0 0
M  V30 4 N 2.2603 1.2478 0.0 0
M  V30 5 N -1.4009 2.9784 0.0 0
M  V30 6 C 0.8358 3.8966 0.0 0
M  V30 7 C 3.0372 2.531 0.0 0
M  V30 8 C -1.5186 4.4853 0.0 0
M  V30 9 N -0.1412 5.0503 0.0 0
M  V30 10 C 2.3191 3.8613 0.0 0
M  V30 11 C 4.5206 2.4957 0.0 0
M  V30 12 C -2.8018 5.2858 0.0 0
M  V30 13 C 3.0961 5.1445 0.0 0
M  V30 14 C 5.2976 3.7789 0.0 0
M  V30 15 C 4.5794 5.1092 0.0 0
M  V30 END ATOM
M  V30 BEGIN BOND
M  V30 1 2 1 2
M  V30 2 1 2 3
M  V30 3 1 2 4
M  V30 4 1 3 5
M  V30 5 1 3 6
M  V30 6 1 4 7
M  V30 7 2 5 8
M  V30 8 2 6 9
M  V30 9 1 6 10
M  V30 10 1 7 11
M  V30 11 1 8 12
M  V30 12 1 10 13
M  V30 13 2 11 14
M  V30 14 2 13 15
M  V30 15 2 7 10
M  V30 16 1 8 9
M  V30 17 1 14 15
M  V30 END BOND
M  V30 END CTAB
M  END
>  <Structure No>
162

>  <Catalog ID>
Z90662863

>  <MW (desalted)>
200.197

>  <ClogP>
-0.707

>  <HBD>
1

>  <TPSA>
59.810

>  <RotBonds>
0

>  <Target>
Serine/threonine-protein kinase Chk1

>  <fromRegid>
CHEMBL1992673

>  <Similarity>
0.9

$$$$
Compound 163
Actelion Java MolfileCreator 2.0

  0  0  0  0  0  0              0 V3000
M  V30 BEGIN CTAB
M  V30 COUNTS 15 16 0 0 0
M  V30 BEGIN ATOM
M  V30 1 Cl 0.0 0.0 0.0 0
M  V30 2 C 1.4915 0.0118 0.0 0
M  V30 3 N 2.3675 1.2429 0.0 0
M  V30 4 N 2.3675 -1.1955 0.0 0
M  V30 5 C 3.788 0.7931 0.0 0
M  V30 6 C 3.788 -0.722 0.0 0
M  V30 7 C 1.894 -2.6161 0.0 0
M  V30 8 N 5.0783 1.5625 0.0 0
M  V30 9 C 5.0783 -1.4678 0.0 0
M  V30 10 C 6.3686 0.8286 0.0 0
M  V30 11 C 5.0664 3.0777 0.0 0
M  V30 12 O 5.0664 -2.9593 0.0 0
M  V30 13 N 6.3686 -0.6984 0.0 0
M  V30 14 O 7.6589 1.598 0.0 0
M  V30 15 C 7.6589 -1.4441 0.0 0
M  V30 END ATOM
M  V30 BEGIN BOND
M  V30 1 1 1 2
M  V30 2 2 2 3
M  V30 3 1 2 4
M  V30 4 1 3 5
M  V30 5 1 4 6
M  V30 6 1 4 7
M  V30 7 1 5 8
M  V30 8 1 6 9
M  V30 9 1 8 10
M  V30 10 1 8 11
M  V30 11 2 9 12
M  V30 12 1 9 13
M  V30 13 2 10 14
M  V30 14 1 13 15
M  V30 15 2 5 6
M  V30 16 1 10 13
M  V30 END BOND
M  V30 END CTAB
M  END
>  <Structure No>
163

>  <Catalog ID>
Z104495030

>  <MW (desalted)>
228.636

>  <ClogP>
0.707

>  <HBD>
0

>  <TPSA>
58.440

>  <RotBonds>
0

>  <Target>
Serine-protein kinase ATM

>  <fromRegid>
CHEMBL113

>  <Similarity>
0.88

$$$$
Compound 164
Actelion Java MolfileCreator 2.0

  0  0  0  0  0  0              0 V3000
M  V30 BEGIN CTAB
M  V30 COUNTS 15 17 0 0 0
M  V30 BEGIN ATOM
M  V30 1 O 0.0 0.0 0.0 0
M  V30 2 C -0.7227 -1.3151 0.0 0
M  V30 3 N -2.2392 -1.3506 0.0 0
M  V30 4 C 0.0592 -2.5828 0.0 0
M  V30 5 C -2.9619 -2.6657 0.0 0
M  V30 6 C -0.6634 -3.8979 0.0 0
M  V30 7 C 1.552 -2.5235 0.0 0
M  V30 8 N -2.1799 -3.9334 0.0 0
M  V30 9 C -4.431 -3.0093 0.0 0
M  V30 10 C 0.1184 -5.1656 0.0 0
M  V30 11 C 2.334 -3.7912 0.0 0
M  V30 12 N -3.1633 -5.0708 0.0 0
M  V30 13 C -4.5495 -4.5021 0.0 0
M  V30 14 C 1.6112 -5.1063 0.0 0
M  V30 15 C -5.8409 -5.2841 0.0 0
M  V30 END ATOM
M  V30 BEGIN BOND
M  V30 1 2 1 2
M  V30 2 1 2 3
M  V30 3 1 2 4
M  V30 4 1 3 5
M  V30 5 2 4 6
M  V30 6 1 4 7
M  V30 7 1 5 8
M  V30 8 2 5 9
M  V30 9 1 6 10
M  V30 10 2 7 11
M  V30 11 1 8 12
M  V30 12 1 9 13
M  V30 13 2 10 14
M  V30 14 1 13 15
M  V30 15 1 6 8
M  V30 16 1 11 14
M  V30 17 2 12 13
M  V30 END BOND
M  V30 END CTAB
M  END
>  <Structure No>
164

>  <Catalog ID>
Z56764726

>  <MW (desalted)>
199.209

>  <ClogP>
1.139

>  <HBD>
1

>  <TPSA>
46.920

>  <RotBonds>
0

>  <Target>
Poly [ADP-ribose] polymerase-1

>  <fromRegid>
CHEMBL551657

>  <Similarity>
1.0

$$$$
Compound 165
Actelion Java MolfileCreator 2.0

  0  0  0  0  0  0              0 V3000
M  V30 BEGIN CTAB
M  V30 COUNTS 15 16 0 0 0
M  V30 BEGIN ATOM
M  V30 1 O 0.0 0.0 0.0 0
M  V30 2 C -0.0117 1.4998 0.0 0
M  V30 3 N 1.2655 2.2615 0.0 0
M  V30 4 C -1.3124 2.2615 0.0 0
M  V30 5 C 1.2538 3.7614 0.0 0
M  V30 6 C -1.3241 3.7614 0.0 0
M  V30 7 C -2.613 1.5233 0.0 0
M  V30 8 N -0.0468 4.5231 0.0 0
M  V30 9 C -2.6248 4.5231 0.0 0
M  V30 10 C -3.9137 2.2849 0.0 0
M  V30 11 C -3.9254 3.7848 0.0 0
M  V30 12 O -5.2144 1.5467 0.0 0
M  V30 13 O -5.2261 4.5465 0.0 0
M  V30 14 C -6.5151 2.3084 0.0 0
M  V30 15 C -6.5268 3.8083 0.0 0
M  V30 END ATOM
M  V30 BEGIN BOND
M  V30 1 2 1 2
M  V30 2 1 2 3
M  V30 3 1 2 4
M  V30 4 2 3 5
M  V30 5 2 4 6
M  V30 6 1 4 7
M  V30 7 1 5 8
M  V30 8 1 6 9
M  V30 9 2 7 10
M  V30 10 2 9 11
M  V30 11 1 10 12
M  V30 12 1 11 13
M  V30 13 1 12 14
M  V30 14 1 13 15
M  V30 15 1 6 8
M  V30 16 1 10 11
M  V30 END BOND
M  V30 END CTAB
M  END
>  <Structure No>
165

>  <Catalog ID>
Z1741982032

>  <MW (desalted)>
206.198

>  <ClogP>
0.452

>  <HBD>
1

>  <TPSA>
59.920

>  <RotBonds>
2

>  <Target>
Poly [ADP-ribose] polymerase-1

>  <fromRegid>
CHEMBL1949846

>  <Similarity>
0.86

$$$$
Compound 166
Actelion Java MolfileCreator 2.0

  0  0  0  0  0  0              0 V3000
M  V30 BEGIN CTAB
M  V30 COUNTS 15 17 0 0 0
M  V30 BEGIN ATOM
M  V30 1 S 0.0 0.0 0.0 0
M  V30 2 C 1.4123 0.4707 0.0 0
M  V30 3 C -0.8944 1.224 0.0 0
M  V30 4 N 2.6951 -0.2589 0.0 0
M  V30 5 C 1.4005 1.9772 0.0 0
M  V30 6 C -0.0235 2.448 0.0 0
M  V30 7 C 3.978 0.4943 0.0 0
M  V30 8 C 2.6833 2.7304 0.0 0
M  V30 9 C -0.4943 3.8838 0.0 0
M  V30 10 N 3.9662 2.0007 0.0 0
M  V30 11 O 2.6716 4.2369 0.0 0
M  V30 12 S 0.3766 5.1078 0.0 0
M  V30 13 C -1.9301 4.3546 0.0 0
M  V30 14 C -0.5178 6.3318 0.0 0
M  V30 15 C -1.9419 5.861 0.0 0
M  V30 END ATOM
M  V30 BEGIN BOND
M  V30 1 1 1 2
M  V30 2 1 1 3
M  V30 3 1 2 4
M  V30 4 2 2 5
M  V30 5 2 3 6
M  V30 6 2 4 7
M  V30 7 1 5 8
M  V30 8 1 6 9
M  V30 9 1 7 10
M  V30 10 2 8 11
M  V30 11 1 9 12
M  V30 12 2 9 13
M  V30 13 1 12 14
M  V30 14 1 13 15
M  V30 15 1 5 6
M  V30 16 1 8 10
M  V30 17 2 14 15
M  V30 END BOND
M  V30 END CTAB
M  END
>  <Structure No>
166

>  <Catalog ID>
Z56884045

>  <MW (desalted)>
234.297

>  <ClogP>
1.875

>  <HBD>
1

>  <TPSA>
41.460

>  <RotBonds>
1

>  <Target>
Serine/threonine-protein kinase Chk1

>  <fromRegid>
CHEMBL559696

>  <Similarity>
1.0

$$$$
Compound 167
Actelion Java MolfileCreator 2.0

  0  0  0  0  0  0              0 V3000
M  V30 BEGIN CTAB
M  V30 COUNTS 15 17 0 0 0
M  V30 BEGIN ATOM
M  V30 1 O 0.0 0.0 0.0 0
M  V30 2 C -0.0118 1.513 0.0 0
M  V30 3 N -1.3238 2.2813 0.0 0
M  V30 4 C 1.2765 2.2813 0.0 0
M  V30 5 C -1.3357 3.7943 0.0 0
M  V30 6 C 1.2647 3.7943 0.0 0
M  V30 7 C 2.565 1.5366 0.0 0
M  V30 8 N -0.0472 4.5508 0.0 0
M  V30 9 C 2.5531 4.5508 0.0 0
M  V30 10 C 3.8534 2.3049 0.0 0
M  V30 11 C 3.8416 3.8061 0.0 0
M  V30 12 C 5.1418 1.5602 0.0 0
M  V30 13 C 5.13 4.5626 0.0 0
M  V30 14 C 6.4302 2.3286 0.0 0
M  V30 15 C 6.4184 3.8179 0.0 0
M  V30 END ATOM
M  V30 BEGIN BOND
M  V30 1 2 1 2
M  V30 2 1 2 3
M  V30 3 1 2 4
M  V30 4 1 3 5
M  V30 5 1 4 6
M  V30 6 2 4 7
M  V30 7 2 5 8
M  V30 8 2 6 9
M  V30 9 1 7 10
M  V30 10 1 9 11
M  V30 11 2 10 12
M  V30 12 2 11 13
M  V30 13 1 12 14
M  V30 14 1 13 15
M  V30 15 1 6 8
M  V30 16 1 10 11
M  V30 17 2 14 15
M  V30 END BOND
M  V30 END CTAB
M  END
>  <Structure No>
167

>  <Catalog ID>
Z56762044

>  <MW (desalted)>
196.205

>  <ClogP>
1.479

>  <HBD>
1

>  <TPSA>
41.460

>  <RotBonds>
0

>  <Target>
Poly [ADP-ribose] polymerase-1

>  <fromRegid>
CHEMBL266540

>  <Similarity>
0.94

$$$$
Compound 168
Actelion Java MolfileCreator 2.0

  0  0  0  0  0  0              0 V3000
M  V30 BEGIN CTAB
M  V30 COUNTS 15 17 0 0 0
M  V30 BEGIN ATOM
M  V30 1 S 0.0 0.0 0.0 0
M  V30 2 C -1.2307 -0.8708 0.0 0
M  V30 3 C 1.2075 -0.8708 0.0 0
M  V30 4 N -2.7169 -0.5457 0.0 0
M  V30 5 C -0.7779 -2.2873 0.0 0
M  V30 6 C 0.7314 -2.2873 0.0 0
M  V30 7 C 2.6704 -0.5457 0.0 0
M  V30 8 C -3.7386 -1.6487 0.0 0
M  V30 9 C -1.7996 -3.3903 0.0 0
M  V30 10 C 1.73 -3.3903 0.0 0
M  V30 11 C 3.669 -1.6487 0.0 0
M  V30 12 N -3.2858 -3.0652 0.0 0
M  V30 13 C -5.2248 -1.3236 0.0 0
M  V30 14 O -1.3468 -4.8068 0.0 0
M  V30 15 C 3.1929 -3.0652 0.0 0
M  V30 END ATOM
M  V30 BEGIN BOND
M  V30 1 1 1 2
M  V30 2 1 1 3
M  V30 3 1 2 4
M  V30 4 2 2 5
M  V30 5 2 3 6
M  V30 6 1 3 7
M  V30 7 2 4 8
M  V30 8 1 5 9
M  V30 9 1 6 10
M  V30 10 1 7 11
M  V30 11 1 8 12
M  V30 12 1 8 13
M  V30 13 2 9 14
M  V30 14 1 10 15
M  V30 15 1 5 6
M  V30 16 1 9 12
M  V30 17 1 11 15
M  V30 END BOND
M  V30 END CTAB
M  END
>  <Structure No>
168

>  <Catalog ID>
Z55164926

>  <MW (desalted)>
220.291

>  <ClogP>
2.195

>  <HBD>
1

>  <TPSA>
41.460

>  <RotBonds>
0

>  <Target>
Serine/threonine-protein kinase Chk1

>  <fromRegid>
CHEMBL539906

>  <Similarity>
0.92

$$$$
Compound 169
Actelion Java MolfileCreator 2.0

  0  0  0  0  0  0              0 V3000
M  V30 BEGIN CTAB
M  V30 COUNTS 15 16 0 0 0
M  V30 BEGIN ATOM
M  V30 1 O 0.0 0.0 0.0 0
M  V30 2 C -0.0118 -1.4919 0.0 0
M  V30 3 N 1.2788 -2.2261 0.0 0
M  V30 4 C -1.3262 -2.2261 0.0 0
M  V30 5 C 1.267 -3.7181 0.0 0
M  V30 6 C -1.338 -3.7181 0.0 0
M  V30 7 C -2.6405 -1.4683 0.0 0
M  V30 8 N -0.0473 -4.4641 0.0 0
M  V30 9 C 2.5576 -4.4641 0.0 0
M  V30 10 C -2.6524 -4.4641 0.0 0
M  V30 11 C -3.9549 -2.2024 0.0 0
M  V30 12 C 3.8483 -3.6944 0.0 0
M  V30 13 C -3.9667 -3.6944 0.0 0
M  V30 14 C -2.6642 -5.956 0.0 0
M  V30 15 N 5.139 -2.9366 0.0 0
M  V30 END ATOM
M  V30 BEGIN BOND
M  V30 1 2 1 2
M  V30 2 1 2 3
M  V30 3 1 2 4
M  V30 4 1 3 5
M  V30 5 2 4 6
M  V30 6 1 4 7
M  V30 7 2 5 8
M  V30 8 1 5 9
M  V30 9 1 6 10
M  V30 10 2 7 11
M  V30 11 1 9 12
M  V30 12 2 10 13
M  V30 13 1 10 14
M  V30 14 3 12 15
M  V30 15 1 6 8
M  V30 16 1 11 13
M  V30 END BOND
M  V30 END CTAB
M  END
>  <Structure No>
169

>  <Catalog ID>
Z361877642

>  <MW (desalted)>
199.209

>  <ClogP>
0.226

>  <HBD>
1

>  <TPSA>
65.250

>  <RotBonds>
1

>  <Target>
Poly [ADP-ribose] polymerase-1

>  <fromRegid>
CHEMBL1949864

>  <Similarity>
0.87

$$$$
Compound 170
Actelion Java MolfileCreator 2.0

  0  0  0  0  0  0              0 V3000
M  V30 BEGIN CTAB
M  V30 COUNTS 15 16 0 0 0
M  V30 BEGIN ATOM
M  V30 1 O 0.0 0.0 0.0 0
M  V30 2 C -0.0117 1.5049 0.0 0
M  V30 3 N -1.3168 2.2692 0.0 0
M  V30 4 C 1.2698 2.2692 0.0 0
M  V30 5 C -1.3286 3.7741 0.0 0
M  V30 6 C 1.258 3.7741 0.0 0
M  V30 7 C 2.5513 1.5284 0.0 0
M  V30 8 N -0.047 4.5384 0.0 0
M  V30 9 C -2.6336 4.5384 0.0 0
M  V30 10 C 2.5396 4.5384 0.0 0
M  V30 11 C 3.8329 2.2927 0.0 0
M  V30 12 N -3.9387 3.7976 0.0 0
M  V30 13 C 3.8212 3.7976 0.0 0
M  V30 14 C -5.2438 4.5619 0.0 0
M  V30 15 C -6.5489 3.8212 0.0 0
M  V30 END ATOM
M  V30 BEGIN BOND
M  V30 1 2 1 2
M  V30 2 1 2 3
M  V30 3 1 2 4
M  V30 4 1 3 5
M  V30 5 2 4 6
M  V30 6 1 4 7
M  V30 7 2 5 8
M  V30 8 1 5 9
M  V30 9 1 6 10
M  V30 10 2 7 11
M  V30 11 1 9 12
M  V30 12 2 10 13
M  V30 13 1 12 14
M  V30 14 1 14 15
M  V30 15 1 6 8
M  V30 16 1 11 13
M  V30 END BOND
M  V30 END CTAB
M  END
>  <Structure No>
170

>  <Catalog ID>
Z44508631

>  <MW (desalted)>
203.240

>  <ClogP>
0.202

>  <HBD>
2

>  <TPSA>
53.490

>  <RotBonds>
3

>  <Target>
Poly [ADP-ribose] polymerase-1

>  <fromRegid>
CHEMBL395092

>  <Similarity>
0.88

$$$$
Compound 171
Actelion Java MolfileCreator 2.0

  0  0  0  0  0  0              0 V3000
M  V30 BEGIN CTAB
M  V30 COUNTS 16 16 0 0 0
M  V30 BEGIN ATOM
M  V30 1 Cl 0.0 0.0 0.0 0
M  V30 2 O 9.1008 3.1284 0.0 0
M  V30 3 C 9.5511 1.7064 0.0 0
M  V30 4 N 8.6505 0.4977 0.0 0
M  V30 5 C 10.9731 1.2561 0.0 0
M  V30 6 C 9.5274 -0.711 0.0 0
M  V30 7 C 7.1337 0.5095 0.0 0
M  V30 8 C 10.9612 -0.237 0.0 0
M  V30 9 C 12.2647 2.0145 0.0 0
M  V30 10 O 9.0534 -2.133 0.0 0
M  V30 11 C 6.3634 -0.7821 0.0 0
M  V30 12 C 12.2529 -0.9835 0.0 0
M  V30 13 C 13.5564 1.2798 0.0 0
M  V30 14 C 4.8466 -0.7702 0.0 0
M  V30 15 C 13.5445 -0.2251 0.0 0
M  V30 16 N 4.0882 -2.0619 0.0 0
M  V30 END ATOM
M  V30 BEGIN BOND
M  V30 1 2 2 3
M  V30 2 1 3 4
M  V30 3 1 3 5
M  V30 4 1 4 6
M  V30 5 1 4 7
M  V30 6 2 5 8
M  V30 7 1 5 9
M  V30 8 2 6 10
M  V30 9 1 7 11
M  V30 10 1 8 12
M  V30 11 2 9 13
M  V30 12 1 11 14
M  V30 13 2 12 15
M  V30 14 1 14 16
M  V30 15 1 6 8
M  V30 16 1 13 15
M  V30 END BOND
M  V30 END CTAB
M  END
>  <Structure No>
171

>  <Catalog ID>
Z2065464347

>  <MW (desalted)>
204.225

>  <ClogP>
1.073

>  <HBD>
1

>  <TPSA>
63.400

>  <RotBonds>
3

>  <Target>
Poly [ADP-ribose] polymerase-1

>  <fromRegid>
CHEMBL1329044

>  <Similarity>
0.89

$$$$
Compound 172
Actelion Java MolfileCreator 2.0

  0  0  0  0  0  0              0 V3000
M  V30 BEGIN CTAB
M  V30 COUNTS 15 16 0 0 0
M  V30 BEGIN ATOM
M  V30 1 O 0.0 0.0 0.0 0
M  V30 2 C 0.45 -1.4212 0.0 0
M  V30 3 N -0.45 -2.6292 0.0 0
M  V30 4 C 1.8712 -1.8712 0.0 0
M  V30 5 C 0.4263 -3.8373 0.0 0
M  V30 6 C -1.966 -2.6174 0.0 0
M  V30 7 C 1.8594 -3.3635 0.0 0
M  V30 8 C 3.1622 -1.1132 0.0 0
M  V30 9 O -0.0473 -5.2585 0.0 0
M  V30 10 C -2.724 -3.9083 0.0 0
M  V30 11 C 3.1503 -4.1097 0.0 0
M  V30 12 C 4.4531 -1.8476 0.0 0
M  V30 13 C -4.24 -3.8965 0.0 0
M  V30 14 C 4.4413 -3.3517 0.0 0
M  V30 15 N -5.7559 -3.8847 0.0 0
M  V30 END ATOM
M  V30 BEGIN BOND
M  V30 1 2 1 2
M  V30 2 1 2 3
M  V30 3 1 2 4
M  V30 4 1 3 5
M  V30 5 1 3 6
M  V30 6 2 4 7
M  V30 7 1 4 8
M  V30 8 2 5 9
M  V30 9 1 6 10
M  V30 10 1 7 11
M  V30 11 2 8 12
M  V30 12 1 10 13
M  V30 13 2 11 14
M  V30 14 3 13 15
M  V30 15 1 5 7
M  V30 16 1 12 14
M  V30 END BOND
M  V30 END CTAB
M  END
>  <Structure No>
172

>  <Catalog ID>
Z54335998

>  <MW (desalted)>
200.193

>  <ClogP>
0.960

>  <HBD>
0

>  <TPSA>
61.170

>  <RotBonds>
2

>  <Target>
Poly [ADP-ribose] polymerase-1

>  <fromRegid>
CHEMBL1329044

>  <Similarity>
0.86

$$$$
Compound 173
Actelion Java MolfileCreator 2.0

  0  0  0  0  0  0              0 V3000
M  V30 BEGIN CTAB
M  V30 COUNTS 15 17 0 0 0
M  V30 BEGIN ATOM
M  V30 1 O 0.0 0.0 0.0 0
M  V30 2 C 0.7486 -1.2952 0.0 0
M  V30 3 N 2.2458 -1.2833 0.0 0
M  V30 4 C -0.0118 -2.5904 0.0 0
M  V30 5 C 2.9826 -2.5786 0.0 0
M  V30 6 C 0.7367 -3.8857 0.0 0
M  V30 7 C -1.5329 -2.5786 0.0 0
M  V30 8 C 2.2221 -3.8738 0.0 0
M  V30 9 C 4.4798 -2.5667 0.0 0
M  V30 10 C -0.0237 -5.1809 0.0 0
M  V30 11 C -2.2934 -3.8738 0.0 0
M  V30 12 C 2.9588 -5.1691 0.0 0
M  V30 13 C 5.2285 -3.8619 0.0 0
M  V30 14 C -1.5447 -5.1691 0.0 0
M  V30 15 C 4.4561 -5.1572 0.0 0
M  V30 END ATOM
M  V30 BEGIN BOND
M  V30 1 2 1 2
M  V30 2 1 2 3
M  V30 3 1 2 4
M  V30 4 1 3 5
M  V30 5 2 4 6
M  V30 6 1 4 7
M  V30 7 2 5 8
M  V30 8 1 5 9
M  V30 9 1 6 10
M  V30 10 2 7 11
M  V30 11 1 8 12
M  V30 12 2 9 13
M  V30 13 2 10 14
M  V30 14 2 12 15
M  V30 15 1 6 8
M  V30 16 1 11 14
M  V30 17 1 13 15
M  V30 END BOND
M  V30 END CTAB
M  END
>  <Structure No>
173

>  <Catalog ID>
Z275368072

>  <MW (desalted)>
195.217

>  <ClogP>
2.196

>  <HBD>
1

>  <TPSA>
29.100

>  <RotBonds>
0

>  <Target>
Poly [ADP-ribose] polymerase-1

>  <fromRegid>
CHEMBL45245

>  <Similarity>
1.0

$$$$
Compound 174
Actelion Java MolfileCreator 2.0

  0  0  0  0  0  0              0 V3000
M  V30 BEGIN CTAB
M  V30 COUNTS 15 16 0 0 0
M  V30 BEGIN ATOM
M  V30 1 Br 0.0 0.0 0.0 0
M  V30 2 C 1.4248 -0.4511 0.0 0
M  V30 3 C 1.7216 -1.9116 0.0 0
M  V30 4 C 2.529 0.5699 0.0 0
M  V30 5 C 3.1465 -2.3628 0.0 0
M  V30 6 C 3.9539 0.1187 0.0 0
M  V30 7 C 4.2507 -1.3417 0.0 0
M  V30 8 C 5.6755 -1.7929 0.0 0
M  V30 9 N 6.1267 -3.2177 0.0 0
M  V30 10 C 6.8866 -0.8905 0.0 0
M  V30 11 N 7.6228 -3.2058 0.0 0
M  V30 12 C 8.0978 -1.7691 0.0 0
M  V30 13 C 6.8748 0.6293 0.0 0
M  V30 14 N 9.5226 -1.2942 0.0 0
M  V30 15 C 8.169 1.3892 0.0 0
M  V30 END ATOM
M  V30 BEGIN BOND
M  V30 1 1 1 2
M  V30 2 2 2 3
M  V30 3 1 2 4
M  V30 4 1 3 5
M  V30 5 2 4 6
M  V30 6 2 5 7
M  V30 7 1 7 8
M  V30 8 2 8 9
M  V30 9 1 8 10
M  V30 10 1 9 11
M  V30 11 2 10 12
M  V30 12 1 10 13
M  V30 13 1 12 14
M  V30 14 1 13 15
M  V30 15 1 6 7
M  V30 16 1 11 12
M  V30 END BOND
M  V30 END CTAB
M  END
>  <Structure No>
174

>  <Catalog ID>
Z445224178

>  <MW (desalted)>
266.137

>  <ClogP>
3.306

>  <HBD>
2

>  <TPSA>
54.700

>  <RotBonds>
2

>  <Target>
CHK1

>  <fromRegid>


>  <Similarity>


$$$$
Compound 175
Actelion Java MolfileCreator 2.0

  0  0  0  0  0  0              0 V3000
M  V30 BEGIN CTAB
M  V30 COUNTS 16 16 0 0 0
M  V30 BEGIN ATOM
M  V30 1 Cl 0.0 0.0 0.0 0
M  V30 2 O 9.1008 3.1284 0.0 0
M  V30 3 C 9.5511 1.7064 0.0 0
M  V30 4 N 8.6505 0.4977 0.0 0
M  V30 5 C 10.9731 1.2561 0.0 0
M  V30 6 C 9.5274 -0.711 0.0 0
M  V30 7 C 7.1337 0.5095 0.0 0
M  V30 8 C 10.9612 -0.237 0.0 0
M  V30 9 C 12.2647 2.0145 0.0 0
M  V30 10 O 9.0534 -2.133 0.0 0
M  V30 11 C 6.3634 -0.7821 0.0 0
M  V30 12 C 12.2529 -0.9835 0.0 0
M  V30 13 C 13.5564 1.2798 0.0 0
M  V30 14 N 4.8466 -0.7702 0.0 0
M  V30 15 C 13.5445 -0.2251 0.0 0
M  V30 16 C 4.0882 -2.0619 0.0 0
M  V30 END ATOM
M  V30 BEGIN BOND
M  V30 1 2 2 3
M  V30 2 1 3 4
M  V30 3 1 3 5
M  V30 4 1 4 6
M  V30 5 1 4 7
M  V30 6 2 5 8
M  V30 7 1 5 9
M  V30 8 2 6 10
M  V30 9 1 7 11
M  V30 10 1 8 12
M  V30 11 2 9 13
M  V30 12 1 11 14
M  V30 13 2 12 15
M  V30 14 1 14 16
M  V30 15 1 6 8
M  V30 16 1 13 15
M  V30 END BOND
M  V30 END CTAB
M  END
>  <Structure No>
175

>  <Catalog ID>
Z1507503093

>  <MW (desalted)>
204.225

>  <ClogP>
1.038

>  <HBD>
1

>  <TPSA>
49.410

>  <RotBonds>
3

>  <Target>
Poly [ADP-ribose] polymerase-1

>  <fromRegid>
CHEMBL611975

>  <Similarity>
0.85

$$$$
Compound 176
Actelion Java MolfileCreator 2.0

  0  0  0  0  0  0              0 V3000
M  V30 BEGIN CTAB
M  V30 COUNTS 15 16 0 0 0
M  V30 BEGIN ATOM
M  V30 1 O 0.0 0.0 0.0 0
M  V30 2 C -1.308 -0.7424 0.0 0
M  V30 3 N -2.6161 0.0235 0.0 0
M  V30 4 N -1.3198 -2.2272 0.0 0
M  V30 5 C -3.9241 -0.7188 0.0 0
M  V30 6 C -2.6278 1.5319 0.0 0
M  V30 7 C -2.6278 -2.9696 0.0 0
M  V30 8 N -5.3618 -0.2474 0.0 0
M  V30 9 C -3.9359 -2.2036 0.0 0
M  V30 10 O -2.6396 -4.4544 0.0 0
M  V30 11 C -6.2574 -1.4494 0.0 0
M  V30 12 N -5.3736 -2.6514 0.0 0
M  V30 13 C -5.845 -4.0655 0.0 0
M  V30 14 C -7.318 -4.3601 0.0 0
M  V30 15 C -7.7894 -5.7743 0.0 0
M  V30 END ATOM
M  V30 BEGIN BOND
M  V30 1 2 1 2
M  V30 2 1 2 3
M  V30 3 1 2 4
M  V30 4 1 3 5
M  V30 5 1 3 6
M  V30 6 1 4 7
M  V30 7 1 5 8
M  V30 8 2 5 9
M  V30 9 2 7 10
M  V30 10 2 8 11
M  V30 11 1 9 12
M  V30 12 1 12 13
M  V30 13 1 13 14
M  V30 14 1 14 15
M  V30 15 1 7 9
M  V30 16 1 11 12
M  V30 END BOND
M  V30 END CTAB
M  END
>  <Structure No>
176

>  <Catalog ID>
Z839027068

>  <MW (desalted)>
208.217

>  <ClogP>
0.386

>  <HBD>
1

>  <TPSA>
67.230

>  <RotBonds>
2

>  <Target>
Serine-protein kinase ATM

>  <fromRegid>
CHEMBL113

>  <Similarity>
0.9

$$$$
Compound 177
Actelion Java MolfileCreator 2.0

  0  0  0  0  0  0              0 V3000
M  V30 BEGIN CTAB
M  V30 COUNTS 15 16 0 0 0
M  V30 BEGIN ATOM
M  V30 1 F 0.0 0.0 0.0 0
M  V30 2 C -1.3021 0.7625 0.0 0
M  V30 3 C -2.6042 0.0234 0.0 0
M  V30 4 C -1.3138 2.264 0.0 0
M  V30 5 C -3.9064 0.7859 0.0 0
M  V30 6 C -2.616 3.0265 0.0 0
M  V30 7 C -3.9181 2.2875 0.0 0
M  V30 8 C -5.2085 0.0469 0.0 0
M  V30 9 N -5.2202 3.05 0.0 0
M  V30 10 C -5.2202 -1.4311 0.0 0
M  V30 11 C -6.5107 0.8094 0.0 0
M  V30 12 C -6.5224 2.311 0.0 0
M  V30 13 O -6.5224 -2.1702 0.0 0
M  V30 14 O -3.9416 -2.1702 0.0 0
M  V30 15 O -7.8245 3.0735 0.0 0
M  V30 END ATOM
M  V30 BEGIN BOND
M  V30 1 1 1 2
M  V30 2 2 2 3
M  V30 3 1 2 4
M  V30 4 1 3 5
M  V30 5 2 4 6
M  V30 6 1 5 7
M  V30 7 2 5 8
M  V30 8 2 7 9
M  V30 9 1 8 10
M  V30 10 1 8 11
M  V30 11 1 9 12
M  V30 12 2 10 13
M  V30 13 1 10 14
M  V30 14 1 12 15
M  V30 15 1 6 7
M  V30 16 2 11 12
M  V30 END BOND
M  V30 END CTAB
M  END
>  <Structure No>
177

>  <Catalog ID>
Z916963792

>  <MW (desalted)>
207.158

>  <ClogP>
2.701

>  <HBD>
2

>  <TPSA>
70.420

>  <RotBonds>
1

>  <Target>
Poly [ADP-ribose] polymerase-1

>  <fromRegid>
CHEMBL298053

>  <Similarity>
0.86

$$$$
Compound 178
Actelion Java MolfileCreator 2.0

  0  0  0  0  0  0              0 V3000
M  V30 BEGIN CTAB
M  V30 COUNTS 15 17 0 0 0
M  V30 BEGIN ATOM
M  V30 1 O 0.0 0.0 0.0 0
M  V30 2 C 1.292 -0.7468 0.0 0
M  V30 3 C -1.3158 -0.7468 0.0 0
M  V30 4 C 1.2802 -2.2404 0.0 0
M  V30 5 C -1.3276 -2.2404 0.0 0
M  V30 6 N -0.0355 -2.9753 0.0 0
M  V30 7 C -0.0474 -4.469 0.0 0
M  V30 8 N 1.2446 -5.2039 0.0 0
M  V30 9 C -1.3632 -5.2039 0.0 0
M  V30 10 C 1.2328 -6.6975 0.0 0
M  V30 11 N -2.8094 -4.7297 0.0 0
M  V30 12 C -1.375 -6.6975 0.0 0
M  V30 13 N -0.0829 -7.4325 0.0 0
M  V30 14 C -3.7103 -5.9389 0.0 0
M  V30 15 N -2.8212 -7.148 0.0 0
M  V30 END ATOM
M  V30 BEGIN BOND
M  V30 1 1 1 2
M  V30 2 1 1 3
M  V30 3 1 2 4
M  V30 4 1 3 5
M  V30 5 1 4 6
M  V30 6 1 6 7
M  V30 7 2 7 8
M  V30 8 1 7 9
M  V30 9 1 8 10
M  V30 10 1 9 11
M  V30 11 2 9 12
M  V30 12 2 10 13
M  V30 13 2 11 14
M  V30 14 1 12 15
M  V30 15 1 5 6
M  V30 16 1 12 13
M  V30 17 1 14 15
M  V30 END BOND
M  V30 END CTAB
M  END
>  <Structure No>
178

>  <Catalog ID>
Z57921676

>  <MW (desalted)>
205.217

>  <ClogP>
0.029

>  <HBD>
1

>  <TPSA>
66.930

>  <RotBonds>
1

>  <Target>
Serine/threonine-protein kinase Chk1

>  <fromRegid>
CHEMBL271138

>  <Similarity>
1.0

$$$$
Compound 179
Actelion Java MolfileCreator 2.0

  0  0  0  0  0  0              0 V3000
M  V30 BEGIN CTAB
M  V30 COUNTS 15 17 0 0 0
M  V30 BEGIN ATOM
M  V30 1 N 0.0 0.0 0.0 0
M  V30 2 C 0.8683 1.2272 0.0 0
M  V30 3 C 0.8683 -1.204 0.0 0
M  V30 4 N 2.2807 0.7757 0.0 0
M  V30 5 C 0.3936 2.6628 0.0 0
M  V30 6 C 2.2807 -0.7293 0.0 0
M  V30 7 C 3.5659 1.5398 0.0 0
M  V30 8 C -1.0882 2.987 0.0 0
M  V30 9 C 1.3893 3.7858 0.0 0
M  V30 10 C 3.5659 -1.4703 0.0 0
M  V30 11 C 4.851 0.7988 0.0 0
M  V30 12 C -1.5629 4.4226 0.0 0
M  V30 13 C 0.9146 5.2215 0.0 0
M  V30 14 C 4.851 -0.7062 0.0 0
M  V30 15 C -0.5673 5.5456 0.0 0
M  V30 END ATOM
M  V30 BEGIN BOND
M  V30 1 2 1 2
M  V30 2 1 1 3
M  V30 3 1 2 4
M  V30 4 1 2 5
M  V30 5 2 3 6
M  V30 6 1 4 7
M  V30 7 2 5 8
M  V30 8 1 5 9
M  V30 9 1 6 10
M  V30 10 2 7 11
M  V30 11 1 8 12
M  V30 12 2 9 13
M  V30 13 2 10 14
M  V30 14 2 12 15
M  V30 15 1 4 6
M  V30 16 1 11 14
M  V30 17 1 13 15
M  V30 END BOND
M  V30 END CTAB
M  END
>  <Structure No>
179

>  <Catalog ID>
Z57214517

>  <MW (desalted)>
194.232

>  <ClogP>
3.504

>  <HBD>
0

>  <TPSA>
17.300

>  <RotBonds>
1

>  <Target>
Serine/threonine-protein kinase Chk1

>  <fromRegid>
CHEMBL1380050

>  <Similarity>
1.0

$$$$
Compound 180
Actelion Java MolfileCreator 2.0

  0  0  0  0  0  0              0 V3000
M  V30 BEGIN CTAB
M  V30 COUNTS 15 16 0 0 0
M  V30 BEGIN ATOM
M  V30 1 F 0.0 0.0 0.0 0
M  V30 2 C -0.0117 1.509 0.0 0
M  V30 3 F 1.4737 1.5208 0.0 0
M  V30 4 F -1.5208 1.5208 0.0 0
M  V30 5 C -0.0235 3.0181 0.0 0
M  V30 6 C 1.2614 3.7726 0.0 0
M  V30 7 C -1.3322 3.7726 0.0 0
M  V30 8 N 2.5465 3.0299 0.0 0
M  V30 9 C 1.2497 5.2817 0.0 0
M  V30 10 C -1.344 5.2817 0.0 0
M  V30 11 C 3.8316 3.7844 0.0 0
M  V30 12 C 2.5347 6.0363 0.0 0
M  V30 13 C -0.0589 6.0363 0.0 0
M  V30 14 N 3.8198 5.2935 0.0 0
M  V30 15 O 2.5229 7.5453 0.0 0
M  V30 END ATOM
M  V30 BEGIN BOND
M  V30 1 1 1 2
M  V30 2 1 2 3
M  V30 3 1 2 4
M  V30 4 1 2 5
M  V30 5 2 5 6
M  V30 6 1 5 7
M  V30 7 1 6 8
M  V30 8 1 6 9
M  V30 9 2 7 10
M  V30 10 2 8 11
M  V30 11 1 9 12
M  V30 12 2 9 13
M  V30 13 1 11 14
M  V30 14 2 12 15
M  V30 15 1 10 13
M  V30 16 1 12 14
M  V30 END BOND
M  V30 END CTAB
M  END
>  <Structure No>
180

>  <Catalog ID>
Z1262433900

>  <MW (desalted)>
214.144

>  <ClogP>
1.290

>  <HBD>
1

>  <TPSA>
41.460

>  <RotBonds>
1

>  <Target>
Poly [ADP-ribose] polymerase-1

>  <fromRegid>
CHEMBL1949850

>  <Similarity>
0.88

$$$$
Compound 181
Actelion Java MolfileCreator 2.0

  0  0  0  0  0  0              0 V3000
M  V30 BEGIN CTAB
M  V30 COUNTS 15 16 0 0 0
M  V30 BEGIN ATOM
M  V30 1 O 0.0 0.0 0.0 0
M  V30 2 C 1.2959 -0.7371 0.0 0
M  V30 3 N 2.5918 0.0237 0.0 0
M  V30 4 C 1.284 -2.2351 0.0 0
M  V30 5 C 3.8877 -0.7133 0.0 0
M  V30 6 C 2.5799 -2.9841 0.0 0
M  V30 7 C 3.8758 -2.2113 0.0 0
M  V30 8 C 5.1836 0.0475 0.0 0
M  V30 9 C 2.568 -4.4822 0.0 0
M  V30 10 C 5.1717 -2.9603 0.0 0
M  V30 11 C 6.4795 -0.6895 0.0 0
M  V30 12 O 3.8639 -5.2312 0.0 0
M  V30 13 O 1.2483 -5.2312 0.0 0
M  V30 14 C 6.4676 -2.1994 0.0 0
M  V30 15 C 1.2364 -6.7292 0.0 0
M  V30 END ATOM
M  V30 BEGIN BOND
M  V30 1 2 1 2
M  V30 2 1 2 3
M  V30 3 1 2 4
M  V30 4 1 3 5
M  V30 5 2 4 6
M  V30 6 2 5 7
M  V30 7 1 5 8
M  V30 8 1 6 9
M  V30 9 1 7 10
M  V30 10 2 8 11
M  V30 11 2 9 12
M  V30 12 1 9 13
M  V30 13 2 10 14
M  V30 14 1 13 15
M  V30 15 1 6 7
M  V30 16 1 11 14
M  V30 END BOND
M  V30 END CTAB
M  END
>  <Structure No>
181

>  <Catalog ID>
Z211347112

>  <MW (desalted)>
203.194

>  <ClogP>
1.138

>  <HBD>
1

>  <TPSA>
55.400

>  <RotBonds>
2

>  <Target>
Poly [ADP-ribose] polymerase-1

>  <fromRegid>
CHEMBL294995

>  <Similarity>
0.87

$$$$
Compound 182
Actelion Java MolfileCreator 2.0

  0  0  0  0  0  0              0 V3000
M  V30 BEGIN CTAB
M  V30 COUNTS 15 16 0 0 0
M  V30 BEGIN ATOM
M  V30 1 O 0.0 0.0 0.0 0
M  V30 2 C -0.0117 1.5031 0.0 0
M  V30 3 N 1.2683 2.2665 0.0 0
M  V30 4 C -1.3152 2.2665 0.0 0
M  V30 5 C 1.2565 3.7697 0.0 0
M  V30 6 C -1.327 3.7697 0.0 0
M  V30 7 C -2.6188 1.5266 0.0 0
M  V30 8 N -0.0469 4.5213 0.0 0
M  V30 9 C 2.5366 4.5213 0.0 0
M  V30 10 C -2.6305 4.5213 0.0 0
M  V30 11 C -3.9223 2.29 0.0 0
M  V30 12 C 2.5248 6.0244 0.0 0
M  V30 13 C -3.9341 3.7931 0.0 0
M  V30 14 C -5.2259 1.5501 0.0 0
M  V30 15 N 2.5131 7.5276 0.0 0
M  V30 END ATOM
M  V30 BEGIN BOND
M  V30 1 2 1 2
M  V30 2 1 2 3
M  V30 3 1 2 4
M  V30 4 1 3 5
M  V30 5 2 4 6
M  V30 6 1 4 7
M  V30 7 2 5 8
M  V30 8 1 5 9
M  V30 9 1 6 10
M  V30 10 2 7 11
M  V30 11 1 9 12
M  V30 12 2 10 13
M  V30 13 1 11 14
M  V30 14 3 12 15
M  V30 15 1 6 8
M  V30 16 1 11 13
M  V30 END BOND
M  V30 END CTAB
M  END
>  <Structure No>
182

>  <Catalog ID>
Z104342646

>  <MW (desalted)>
199.209

>  <ClogP>
0.226

>  <HBD>
1

>  <TPSA>
65.250

>  <RotBonds>
1

>  <Target>
Poly [ADP-ribose] polymerase-1

>  <fromRegid>
CHEMBL1949864

>  <Similarity>
0.86

$$$$
Compound 183
Actelion Java MolfileCreator 2.0

  0  0  0  0  0  0              0 V3000
M  V30 BEGIN CTAB
M  V30 COUNTS 15 17 0 0 0
M  V30 BEGIN ATOM
M  V30 1 O 0.0 0.0 0.0 0
M  V30 2 C -0.0118 -1.4949 0.0 0
M  V30 3 N 1.2813 -2.2305 0.0 0
M  V30 4 C -1.3288 -2.2305 0.0 0
M  V30 5 C 1.2695 -3.7254 0.0 0
M  V30 6 C 2.5746 -1.4712 0.0 0
M  V30 7 C -1.3407 -3.7254 0.0 0
M  V30 8 C -2.6458 -1.4712 0.0 0
M  V30 9 N -0.0474 -4.4611 0.0 0
M  V30 10 C 2.5627 -4.4611 0.0 0
M  V30 11 C 3.8678 -2.2068 0.0 0
M  V30 12 C -2.6576 -4.4611 0.0 0
M  V30 13 C -3.9627 -2.2068 0.0 0
M  V30 14 C 3.856 -3.7017 0.0 0
M  V30 15 C -3.9746 -3.7017 0.0 0
M  V30 END ATOM
M  V30 BEGIN BOND
M  V30 1 2 1 2
M  V30 2 1 2 3
M  V30 3 1 2 4
M  V30 4 1 3 5
M  V30 5 1 3 6
M  V30 6 2 4 7
M  V30 7 1 4 8
M  V30 8 2 5 9
M  V30 9 1 5 10
M  V30 10 1 6 11
M  V30 11 1 7 12
M  V30 12 2 8 13
M  V30 13 1 10 14
M  V30 14 2 12 15
M  V30 15 1 7 9
M  V30 16 1 11 14
M  V30 17 1 13 15
M  V30 END BOND
M  V30 END CTAB
M  END
>  <Structure No>
183

>  <Catalog ID>
Z1509566963

>  <MW (desalted)>
200.236

>  <ClogP>
1.720

>  <HBD>
0

>  <TPSA>
32.670

>  <RotBonds>
0

>  <Target>
Poly [ADP-ribose] polymerase-1

>  <fromRegid>
CHEMBL2377256

>  <Similarity>
0.87

$$$$
Compound 184
Actelion Java MolfileCreator 2.0

  0  0  0  0  0  0              0 V3000
M  V30 BEGIN CTAB
M  V30 COUNTS 15 16 0 0 0
M  V30 BEGIN ATOM
M  V30 1 O 0.0 0.0 0.0 0
M  V30 2 C -1.3075 -0.7303 0.0 0
M  V30 3 N -1.3193 -2.2146 0.0 0
M  V30 4 N -2.6151 0.0353 0.0 0
M  V30 5 C -2.6269 -2.9567 0.0 0
M  V30 6 C -0.0353 -2.9567 0.0 0
M  V30 7 C -3.9227 -0.695 0.0 0
M  V30 8 C -2.6269 1.5431 0.0 0
M  V30 9 O -2.6386 -4.441 0.0 0
M  V30 10 C -3.9344 -2.191 0.0 0
M  V30 11 N -5.3598 -0.2238 0.0 0
M  V30 12 N -5.3716 -2.6386 0.0 0
M  V30 13 C -6.2551 -1.4253 0.0 0
M  V30 14 C -5.8428 -4.0522 0.0 0
M  V30 15 N -7.7629 -1.4135 0.0 0
M  V30 END ATOM
M  V30 BEGIN BOND
M  V30 1 2 1 2
M  V30 2 1 2 3
M  V30 3 1 2 4
M  V30 4 1 3 5
M  V30 5 1 3 6
M  V30 6 1 4 7
M  V30 7 1 4 8
M  V30 8 2 5 9
M  V30 9 1 5 10
M  V30 10 1 7 11
M  V30 11 1 10 12
M  V30 12 2 11 13
M  V30 13 1 12 14
M  V30 14 1 13 15
M  V30 15 2 7 10
M  V30 16 1 12 13
M  V30 END BOND
M  V30 END CTAB
M  END
>  <Structure No>
184

>  <Catalog ID>
Z1509384713

>  <MW (desalted)>
209.205

>  <ClogP>
-0.309

>  <HBD>
1

>  <TPSA>
84.460

>  <RotBonds>
0

>  <Target>
Serine-protein kinase ATM

>  <fromRegid>
CHEMBL113

>  <Similarity>
0.91

$$$$
Compound 185
Actelion Java MolfileCreator 2.0

  0  0  0  0  0  0              0 V3000
M  V30 BEGIN CTAB
M  V30 COUNTS 15 17 0 0 0
M  V30 BEGIN ATOM
M  V30 1 O 0.0 0.0 0.0 0
M  V30 2 C 0.3403 1.4551 0.0 0
M  V30 3 N -0.6336 2.6051 0.0 0
M  V30 4 N 1.7132 2.0301 0.0 0
M  V30 5 C -2.1357 2.6637 0.0 0
M  V30 6 C 0.1408 3.8841 0.0 0
M  V30 7 N 1.5959 3.5321 0.0 0
M  V30 8 C -2.8515 3.9898 0.0 0
M  V30 9 C -2.9336 1.4081 0.0 0
M  V30 10 C -0.575 5.2102 0.0 0
M  V30 11 C -2.077 5.2688 0.0 0
M  V30 12 C -4.3535 4.0484 0.0 0
M  V30 13 C -4.4357 1.4668 0.0 0
M  V30 14 C -2.7928 6.5949 0.0 0
M  V30 15 C -5.1515 2.7928 0.0 0
M  V30 END ATOM
M  V30 BEGIN BOND
M  V30 1 2 1 2
M  V30 2 1 2 3
M  V30 3 1 2 4
M  V30 4 1 3 5
M  V30 5 1 3 6
M  V30 6 1 4 7
M  V30 7 2 5 8
M  V30 8 1 5 9
M  V30 9 1 6 10
M  V30 10 1 8 11
M  V30 11 1 8 12
M  V30 12 2 9 13
M  V30 13 1 11 14
M  V30 14 2 12 15
M  V30 15 2 6 7
M  V30 16 2 10 11
M  V30 17 1 13 15
M  V30 END BOND
M  V30 END CTAB
M  END
>  <Structure No>
185

>  <Catalog ID>
Z1618120491

>  <MW (desalted)>
199.209

>  <ClogP>
1.996

>  <HBD>
1

>  <TPSA>
44.700

>  <RotBonds>
0

>  <Target>
Serine/threonine-protein kinase Chk1

>  <fromRegid>
CHEMBL487274

>  <Similarity>
1.0

$$$$
Compound 186
Actelion Java MolfileCreator 2.0

  0  0  0  0  0  0              0 V3000
M  V30 BEGIN CTAB
M  V30 COUNTS 15 16 0 0 0
M  V30 BEGIN ATOM
M  V30 1 O 0.0 0.0 0.0 0
M  V30 2 C -0.0117 1.5023 0.0 0
M  V30 3 N 1.2676 2.2652 0.0 0
M  V30 4 C -1.3145 2.2652 0.0 0
M  V30 5 C 1.2558 3.7676 0.0 0
M  V30 6 C -1.3262 3.7676 0.0 0
M  V30 7 C -2.6173 1.5258 0.0 0
M  V30 8 N -0.0469 4.5305 0.0 0
M  V30 9 C 2.5352 4.5305 0.0 0
M  V30 10 C -2.6291 4.5305 0.0 0
M  V30 11 C -3.9201 2.2887 0.0 0
M  V30 12 C -3.9319 3.791 0.0 0
M  V30 13 C -5.223 1.5492 0.0 0
M  V30 14 C -5.2347 0.0704 0.0 0
M  V30 15 C -6.5258 2.3122 0.0 0
M  V30 END ATOM
M  V30 BEGIN BOND
M  V30 1 2 1 2
M  V30 2 1 2 3
M  V30 3 1 2 4
M  V30 4 1 3 5
M  V30 5 2 4 6
M  V30 6 1 4 7
M  V30 7 2 5 8
M  V30 8 1 5 9
M  V30 9 1 6 10
M  V30 10 2 7 11
M  V30 11 2 10 12
M  V30 12 1 11 13
M  V30 13 1 13 14
M  V30 14 1 13 15
M  V30 15 1 6 8
M  V30 16 1 11 12
M  V30 END BOND
M  V30 END CTAB
M  END
>  <Structure No>
186

>  <Catalog ID>
Z951211406

>  <MW (desalted)>
202.252

>  <ClogP>
2.231

>  <HBD>
1

>  <TPSA>
41.460

>  <RotBonds>
1

>  <Target>
Poly [ADP-ribose] polymerase-1

>  <fromRegid>
CHEMBL395092

>  <Similarity>
0.87

$$$$
Compound 187
Actelion Java MolfileCreator 2.0

  0  0  0  0  0  0              0 V3000
M  V30 BEGIN CTAB
M  V30 COUNTS 16 18 0 0 0
M  V30 BEGIN ATOM
M  V30 1 S 0.0 0.0 0.0 0
M  V30 2 C -1.2183 -0.899 0.0 0
M  V30 3 C 1.2183 -0.8516 0.0 0
M  V30 4 N -2.7088 -0.6032 0.0 0
M  V30 5 C -0.7452 -2.3066 0.0 0
M  V30 6 C 0.7688 -2.2829 0.0 0
M  V30 7 C 2.6023 -0.2838 0.0 0
M  V30 8 C -3.7143 -1.727 0.0 0
M  V30 9 C -1.7506 -3.4304 0.0 0
M  V30 10 C 1.6087 -3.5132 0.0 0
M  V30 11 C 3.8917 -1.0172 0.0 0
M  V30 12 N -3.2411 -3.1346 0.0 0
M  V30 13 C -5.2047 -1.4313 0.0 0
M  V30 14 O -1.2775 -4.838 0.0 0
M  V30 15 C 3.0991 -3.6078 0.0 0
M  V30 16 C 4.1046 -2.4959 0.0 0
M  V30 END ATOM
M  V30 BEGIN BOND
M  V30 1 1 1 2
M  V30 2 1 1 3
M  V30 3 1 2 4
M  V30 4 2 2 5
M  V30 5 2 3 6
M  V30 6 1 3 7
M  V30 7 2 4 8
M  V30 8 1 5 9
M  V30 9 1 6 10
M  V30 10 1 7 11
M  V30 11 1 8 12
M  V30 12 1 8 13
M  V30 13 2 9 14
M  V30 14 1 10 15
M  V30 15 1 11 16
M  V30 16 1 5 6
M  V30 17 1 9 12
M  V30 18 1 15 16
M  V30 END BOND
M  V30 END CTAB
M  END
>  <Structure No>
187

>  <Catalog ID>
Z55996437

>  <MW (desalted)>
234.317

>  <ClogP>
2.754

>  <HBD>
1

>  <TPSA>
41.460

>  <RotBonds>
0

>  <Target>
Serine/threonine-protein kinase Chk1

>  <fromRegid>
CHEMBL539906

>  <Similarity>
0.91

$$$$
Compound 188
Actelion Java MolfileCreator 2.0

  0  0  0  0  0  0              0 V3000
M  V30 BEGIN CTAB
M  V30 COUNTS 16 18 0 0 0
M  V30 BEGIN ATOM
M  V30 1 S 0.0 0.0 0.0 0
M  V30 2 C 1.4135 0.4711 0.0 0
M  V30 3 C -0.8952 1.225 0.0 0
M  V30 4 N 2.6975 -0.2591 0.0 0
M  V30 5 C 1.4017 1.979 0.0 0
M  V30 6 C -0.0235 2.4501 0.0 0
M  V30 7 C 3.9815 0.4947 0.0 0
M  V30 8 C 2.6857 2.7329 0.0 0
M  V30 9 C -0.4947 3.8873 0.0 0
M  V30 10 N 3.9697 2.0025 0.0 0
M  V30 11 C 5.2655 -0.2355 0.0 0
M  V30 12 O 2.674 4.2407 0.0 0
M  V30 13 S 0.3769 5.1124 0.0 0
M  V30 14 C -1.9318 4.3585 0.0 0
M  V30 15 C -0.5183 6.3375 0.0 0
M  V30 16 C -1.9436 5.8663 0.0 0
M  V30 END ATOM
M  V30 BEGIN BOND
M  V30 1 1 1 2
M  V30 2 1 1 3
M  V30 3 1 2 4
M  V30 4 2 2 5
M  V30 5 2 3 6
M  V30 6 2 4 7
M  V30 7 1 5 8
M  V30 8 1 6 9
M  V30 9 1 7 10
M  V30 10 1 7 11
M  V30 11 2 8 12
M  V30 12 1 9 13
M  V30 13 2 9 14
M  V30 14 1 13 15
M  V30 15 1 14 16
M  V30 16 1 5 6
M  V30 17 1 8 10
M  V30 18 2 15 16
M  V30 END BOND
M  V30 END CTAB
M  END
>  <Structure No>
188

>  <Catalog ID>
Z55164942

>  <MW (desalted)>
248.324

>  <ClogP>
2.374

>  <HBD>
1

>  <TPSA>
41.460

>  <RotBonds>
1

>  <Target>
Serine/threonine-protein kinase Chk1

>  <fromRegid>
CHEMBL559696

>  <Similarity>
0.92

$$$$
Compound 189
Actelion Java MolfileCreator 2.0

  0  0  0  0  0  0              0 V3000
M  V30 BEGIN CTAB
M  V30 COUNTS 16 17 0 0 0
M  V30 BEGIN ATOM
M  V30 1 O 0.0 0.0 0.0 0
M  V30 2 C -0.0118 -1.4872 0.0 0
M  V30 3 N -1.322 -2.2309 0.0 0
M  V30 4 C 1.2748 -2.2309 0.0 0
M  V30 5 C -2.6322 -1.4636 0.0 0
M  V30 6 C 2.5614 -1.4636 0.0 0
M  V30 7 C 1.263 -3.7181 0.0 0
M  V30 8 C -3.9424 -2.2073 0.0 0
M  V30 9 C -2.644 0.0472 0.0 0
M  V30 10 N 2.5496 0.0472 0.0 0
M  V30 11 C 3.848 -2.2073 0.0 0
M  V30 12 C 2.5496 -4.45 0.0 0
M  V30 13 C -5.2526 -1.44 0.0 0
M  V30 14 C -3.9542 0.8026 0.0 0
M  V30 15 C 3.8362 -3.6945 0.0 0
M  V30 16 C -5.2644 0.0708 0.0 0
M  V30 END ATOM
M  V30 BEGIN BOND
M  V30 1 2 1 2
M  V30 2 1 2 3
M  V30 3 1 2 4
M  V30 4 1 3 5
M  V30 5 2 4 6
M  V30 6 1 4 7
M  V30 7 2 5 8
M  V30 8 1 5 9
M  V30 9 1 6 10
M  V30 10 1 6 11
M  V30 11 2 7 12
M  V30 12 1 8 13
M  V30 13 2 9 14
M  V30 14 2 11 15
M  V30 15 2 13 16
M  V30 16 1 12 15
M  V30 17 1 14 16
M  V30 END BOND
M  V30 END CTAB
M  END
>  <Structure No>
189

>  <Catalog ID>
Z56040677

>  <MW (desalted)>
212.247

>  <ClogP>
2.343

>  <HBD>
2

>  <TPSA>
55.120

>  <RotBonds>
2

>  <Target>
Serine/threonine-protein kinase Chk2

>  <fromRegid>
CHEMBL1727312

>  <Similarity>
0.85

$$$$
Compound 190
Actelion Java MolfileCreator 2.0

  0  0  0  0  0  0              0 V3000
M  V30 BEGIN CTAB
M  V30 COUNTS 16 18 0 0 0
M  V30 BEGIN ATOM
M  V30 1 S 0.0 0.0 0.0 0
M  V30 2 C -0.8953 1.2252 0.0 0
M  V30 3 C -0.8953 -1.2016 0.0 0
M  V30 4 C -0.4476 2.6624 0.0 0
M  V30 5 C -2.3326 0.7775 0.0 0
M  V30 6 C -2.3326 -0.7304 0.0 0
M  V30 7 C -0.4476 -2.6153 0.0 0
M  V30 8 C 0.966 3.1337 0.0 0
M  V30 9 C -1.343 3.8877 0.0 0
M  V30 10 C 2.2501 2.3915 0.0 0
M  V30 11 C 0.9542 4.6416 0.0 0
M  V30 12 S -0.4712 5.1129 0.0 0
M  V30 13 O 2.2383 0.9071 0.0 0
M  V30 14 N 3.5342 3.1572 0.0 0
M  V30 15 N 2.2383 5.4074 0.0 0
M  V30 16 C 3.5224 4.6652 0.0 0
M  V30 END ATOM
M  V30 BEGIN BOND
M  V30 1 1 1 2
M  V30 2 1 1 3
M  V30 3 1 2 4
M  V30 4 2 2 5
M  V30 5 2 3 6
M  V30 6 1 3 7
M  V30 7 1 4 8
M  V30 8 2 4 9
M  V30 9 1 8 10
M  V30 10 2 8 11
M  V30 11 1 9 12
M  V30 12 2 10 13
M  V30 13 1 10 14
M  V30 14 1 11 15
M  V30 15 1 14 16
M  V30 16 1 5 6
M  V30 17 1 11 12
M  V30 18 2 15 16
M  V30 END BOND
M  V30 END CTAB
M  END
>  <Structure No>
190

>  <Catalog ID>
Z94597996

>  <MW (desalted)>
248.324

>  <ClogP>
2.374

>  <HBD>
1

>  <TPSA>
41.460

>  <RotBonds>
1

>  <Target>
Serine/threonine-protein kinase Chk1

>  <fromRegid>
CHEMBL559696

>  <Similarity>
0.98

$$$$
Compound 191
Actelion Java MolfileCreator 2.0

  0  0  0  0  0  0              0 V3000
M  V30 BEGIN CTAB
M  V30 COUNTS 16 17 0 0 0
M  V30 BEGIN ATOM
M  V30 1 O 0.0 0.0 0.0 0
M  V30 2 C -1.3042 0.7519 0.0 0
M  V30 3 N -1.3159 2.2559 0.0 0
M  V30 4 N -2.6084 0.0234 0.0 0
M  V30 5 C -2.6201 3.0079 0.0 0
M  V30 6 C -0.0352 3.0079 0.0 0
M  V30 7 C -3.9126 0.7754 0.0 0
M  V30 8 C -2.6201 -1.4569 0.0 0
M  V30 9 O -2.6319 4.5118 0.0 0
M  V30 10 C -3.9244 2.2794 0.0 0
M  V30 11 N -5.3461 0.3289 0.0 0
M  V30 12 N -5.3578 2.7494 0.0 0
M  V30 13 C -6.2391 1.5509 0.0 0
M  V30 14 C -5.8278 4.1829 0.0 0
M  V30 15 C -4.8408 5.2991 0.0 0
M  V30 16 O -5.3108 6.7325 0.0 0
M  V30 END ATOM
M  V30 BEGIN BOND
M  V30 1 2 1 2
M  V30 2 1 2 3
M  V30 3 1 2 4
M  V30 4 1 3 5
M  V30 5 1 3 6
M  V30 6 1 4 7
M  V30 7 1 4 8
M  V30 8 2 5 9
M  V30 9 1 5 10
M  V30 10 1 7 11
M  V30 11 1 10 12
M  V30 12 2 11 13
M  V30 13 1 12 14
M  V30 14 1 14 15
M  V30 15 1 15 16
M  V30 16 2 7 10
M  V30 17 1 12 13
M  V30 END BOND
M  V30 END CTAB
M  END
>  <Structure No>
191

>  <Catalog ID>
Z104493598

>  <MW (desalted)>
224.217

>  <ClogP>
-0.870

>  <HBD>
1

>  <TPSA>
78.670

>  <RotBonds>
2

>  <Target>
Serine-protein kinase ATM

>  <fromRegid>
CHEMBL113

>  <Similarity>
0.91

$$$$
Compound 192
Actelion Java MolfileCreator 2.0

  0  0  0  0  0  0              0 V3000
M  V30 BEGIN CTAB
M  V30 COUNTS 16 17 0 0 0
M  V30 BEGIN ATOM
M  V30 1 O 0.0 0.0 0.0 0
M  V30 2 C -0.0117 1.5074 0.0 0
M  V30 3 N -1.319 2.2729 0.0 0
M  V30 4 C 1.2719 2.2729 0.0 0
M  V30 5 C -1.3308 3.7804 0.0 0
M  V30 6 C 1.2601 3.7804 0.0 0
M  V30 7 C 2.5556 1.531 0.0 0
M  V30 8 N -0.0471 4.5341 0.0 0
M  V30 9 C -2.638 4.5341 0.0 0
M  V30 10 C 2.5438 4.5341 0.0 0
M  V30 11 C 3.8393 2.2965 0.0 0
M  V30 12 C -3.9452 3.8039 0.0 0
M  V30 13 C 3.8275 3.8039 0.0 0
M  V30 14 C -5.2525 4.5577 0.0 0
M  V30 15 O -5.2643 6.0651 0.0 0
M  V30 16 O -6.5597 3.8275 0.0 0
M  V30 END ATOM
M  V30 BEGIN BOND
M  V30 1 2 1 2
M  V30 2 1 2 3
M  V30 3 1 2 4
M  V30 4 1 3 5
M  V30 5 2 4 6
M  V30 6 1 4 7
M  V30 7 2 5 8
M  V30 8 1 5 9
M  V30 9 1 6 10
M  V30 10 2 7 11
M  V30 11 1 9 12
M  V30 12 2 10 13
M  V30 13 1 12 14
M  V30 14 2 14 15
M  V30 15 1 14 16
M  V30 16 1 6 8
M  V30 17 1 11 13
M  V30 END BOND
M  V30 END CTAB
M  END
>  <Structure No>
192

>  <Catalog ID>
Z56869288

>  <MW (desalted)>
218.209

>  <ClogP>
0.066

>  <HBD>
2

>  <TPSA>
78.760

>  <RotBonds>
3

>  <Target>
Poly [ADP-ribose] polymerase-1

>  <fromRegid>
CHEMBL2377256

>  <Similarity>
0.86

$$$$
Compound 193
Actelion Java MolfileCreator 2.0

  0  0  0  0  0  0              0 V3000
M  V30 BEGIN CTAB
M  V30 COUNTS 17 17 0 0 0
M  V30 BEGIN ATOM
M  V30 1 Cl 0.0 0.0 0.0 0
M  V30 2 O 12.3761 2.7502 0.0 0
M  V30 3 C 12.0569 1.2891 0.0 0
M  V30 4 N 10.6695 0.6875 0.0 0
M  V30 5 C 13.0514 0.1841 0.0 0
M  V30 6 C 10.8168 -0.798 0.0 0
M  V30 7 C 9.3557 1.4487 0.0 0
M  V30 8 C 12.2901 -1.105 0.0 0
M  V30 9 C 14.537 0.1964 0.0 0
M  V30 10 O 9.6872 -1.7925 0.0 0
M  V30 11 C 8.042 0.7121 0.0 0
M  V30 12 C 13.0268 -2.3941 0.0 0
M  V30 13 C 15.2737 -1.0927 0.0 0
M  V30 14 C 6.7282 1.4733 0.0 0
M  V30 15 C 14.5124 -2.3819 0.0 0
M  V30 16 C 5.4145 0.7366 0.0 0
M  V30 17 N 4.1008 1.4979 0.0 0
M  V30 END ATOM
M  V30 BEGIN BOND
M  V30 1 2 2 3
M  V30 2 1 3 4
M  V30 3 1 3 5
M  V30 4 1 4 6
M  V30 5 1 4 7
M  V30 6 2 5 8
M  V30 7 1 5 9
M  V30 8 2 6 10
M  V30 9 1 7 11
M  V30 10 1 8 12
M  V30 11 2 9 13
M  V30 12 1 11 14
M  V30 13 2 12 15
M  V30 14 1 14 16
M  V30 15 1 16 17
M  V30 16 1 6 8
M  V30 17 1 13 15
M  V30 END BOND
M  V30 END CTAB
M  END
>  <Structure No>
193

>  <Catalog ID>
Z1266933853

>  <MW (desalted)>
218.252

>  <ClogP>
1.214

>  <HBD>
1

>  <TPSA>
63.400

>  <RotBonds>
4

>  <Target>
Poly [ADP-ribose] polymerase-1

>  <fromRegid>
CHEMBL1329044

>  <Similarity>
0.88

$$$$
Compound 194
Actelion Java MolfileCreator 2.0

  0  0  0  0  0  0              0 V3000
M  V30 BEGIN CTAB
M  V30 COUNTS 19 18 0 0 0
M  V30 BEGIN ATOM
M  V30 1 Cl 0.0 0.0 0.0 0
M  V30 2 Cl 3.5817 0.0942 0.0 0
M  V30 3 Cl -0.0942 -7.0691 0.0 0
M  V30 4 N 8.2002 -8.3887 0.0 0
M  V30 5 C 6.8924 -7.6346 0.0 0
M  V30 6 C 8.1884 -9.8732 0.0 0
M  V30 7 N 6.8806 -6.1266 0.0 0
M  V30 8 C 5.5846 -8.3651 0.0 0
M  V30 9 N 6.8806 -10.6037 0.0 0
M  V30 10 C 8.212 -5.4668 0.0 0
M  V30 11 C 5.5257 -5.4668 0.0 0
M  V30 12 N 4.1472 -7.8938 0.0 0
M  V30 13 C 5.5728 -9.8497 0.0 0
M  V30 14 C 8.5301 -3.994 0.0 0
M  V30 15 C 5.184 -3.994 0.0 0
M  V30 16 C 3.2518 -9.0956 0.0 0
M  V30 17 N 4.1354 -10.2974 0.0 0
M  V30 18 N 7.5875 -2.8158 0.0 0
M  V30 19 C 6.103 -2.8158 0.0 0
M  V30 END ATOM
M  V30 BEGIN BOND
M  V30 1 2 4 5
M  V30 2 1 4 6
M  V30 3 1 5 7
M  V30 4 1 5 8
M  V30 5 2 6 9
M  V30 6 1 7 10
M  V30 7 1 7 11
M  V30 8 1 8 12
M  V30 9 2 8 13
M  V30 10 1 10 14
M  V30 11 1 11 15
M  V30 12 2 12 16
M  V30 13 1 13 17
M  V30 14 1 14 18
M  V30 15 1 15 19
M  V30 16 1 9 13
M  V30 17 1 16 17
M  V30 18 1 18 19
M  V30 END BOND
M  V30 END CTAB
M  END
>  <Structure No>
194

>  <Catalog ID>
Z2063791535

>  <MW (desalted)>
218.258

>  <ClogP>
0.062

>  <HBD>
2

>  <TPSA>
69.730

>  <RotBonds>
1

>  <Target>
Serine/threonine-protein kinase Chk2

>  <fromRegid>
CHEMBL2420911

>  <Similarity>
0.86

$$$$
Compound 195
Actelion Java MolfileCreator 2.0

  0  0  0  0  0  0              0 V3000
M  V30 BEGIN CTAB
M  V30 COUNTS 16 17 0 0 0
M  V30 BEGIN ATOM
M  V30 1 S 0.0 0.0 0.0 0
M  V30 2 C -1.019 -1.1019 0.0 0
M  V30 3 C 1.3626 -0.6042 0.0 0
M  V30 4 N -2.5001 -1.3981 0.0 0
M  V30 5 C -0.2725 -2.3935 0.0 0
M  V30 6 C 2.6541 0.1658 0.0 0
M  V30 7 C 1.1967 -2.0854 0.0 0
M  V30 8 N -2.666 -2.8793 0.0 0
M  V30 9 C -3.6257 -0.3791 0.0 0
M  V30 10 C -1.2915 -3.4954 0.0 0
M  V30 11 O 2.6423 1.6825 0.0 0
M  V30 12 N 3.9457 -0.5806 0.0 0
M  V30 13 C -0.9953 -4.9528 0.0 0
M  V30 14 C 5.2372 0.1895 0.0 0
M  V30 15 C 6.5288 -0.5569 0.0 0
M  V30 16 O 7.8203 0.2132 0.0 0
M  V30 END ATOM
M  V30 BEGIN BOND
M  V30 1 1 1 2
M  V30 2 1 1 3
M  V30 3 1 2 4
M  V30 4 2 2 5
M  V30 5 1 3 6
M  V30 6 2 3 7
M  V30 7 1 4 8
M  V30 8 1 4 9
M  V30 9 1 5 10
M  V30 10 2 6 11
M  V30 11 1 6 12
M  V30 12 1 10 13
M  V30 13 1 12 14
M  V30 14 1 14 15
M  V30 15 1 15 16
M  V30 16 1 5 7
M  V30 17 2 8 10
M  V30 END BOND
M  V30 END CTAB
M  END
>  <Structure No>
195

>  <Catalog ID>
Z228706704

>  <MW (desalted)>
239.294

>  <ClogP>
0.293

>  <HBD>
2

>  <TPSA>
67.150

>  <RotBonds>
3

>  <Target>
Serine/threonine-protein kinase Chk1

>  <fromRegid>
CHEMBL1986588

>  <Similarity>
0.87

$$$$
Compound 196
Actelion Java MolfileCreator 2.0

  0  0  0  0  0  0              0 V3000
M  V30 BEGIN CTAB
M  V30 COUNTS 17 17 0 0 0
M  V30 BEGIN ATOM
M  V30 1 Cl 0.0 0.0 0.0 0
M  V30 2 O 12.3761 2.7502 0.0 0
M  V30 3 C 12.0569 1.2891 0.0 0
M  V30 4 N 10.6695 0.6875 0.0 0
M  V30 5 C 13.0514 0.1841 0.0 0
M  V30 6 C 10.8168 -0.798 0.0 0
M  V30 7 C 9.3557 1.4487 0.0 0
M  V30 8 C 12.2901 -1.105 0.0 0
M  V30 9 C 14.537 0.1964 0.0 0
M  V30 10 O 9.6872 -1.7925 0.0 0
M  V30 11 C 8.042 0.7121 0.0 0
M  V30 12 C 13.0268 -2.3941 0.0 0
M  V30 13 C 15.2737 -1.0927 0.0 0
M  V30 14 C 6.7282 1.4733 0.0 0
M  V30 15 C 14.5124 -2.3819 0.0 0
M  V30 16 N 5.4145 0.7366 0.0 0
M  V30 17 C 4.1008 1.4979 0.0 0
M  V30 END ATOM
M  V30 BEGIN BOND
M  V30 1 2 2 3
M  V30 2 1 3 4
M  V30 3 1 3 5
M  V30 4 1 4 6
M  V30 5 1 4 7
M  V30 6 2 5 8
M  V30 7 1 5 9
M  V30 8 2 6 10
M  V30 9 1 7 11
M  V30 10 1 8 12
M  V30 11 2 9 13
M  V30 12 1 11 14
M  V30 13 2 12 15
M  V30 14 1 14 16
M  V30 15 1 16 17
M  V30 16 1 6 8
M  V30 17 1 13 15
M  V30 END BOND
M  V30 END CTAB
M  END
>  <Structure No>
196

>  <Catalog ID>
Z2372097351

>  <MW (desalted)>
218.252

>  <ClogP>
1.311

>  <HBD>
1

>  <TPSA>
49.410

>  <RotBonds>
4

>  <Target>
Poly [ADP-ribose] polymerase-1

>  <fromRegid>
CHEMBL1329044

>  <Similarity>
0.89

$$$$
Compound 197
Actelion Java MolfileCreator 2.0

  0  0  0  0  0  0              0 V3000
M  V30 BEGIN CTAB
M  V30 COUNTS 16 17 0 0 0
M  V30 BEGIN ATOM
M  V30 1 Br 0.0 0.0 0.0 0
M  V30 2 C 1.4867 0.1665 0.0 0
M  V30 3 C 2.2241 1.4867 0.0 0
M  V30 4 C 2.4858 -0.9396 0.0 0
M  V30 5 N 3.6871 1.1893 0.0 0
M  V30 6 C 3.8536 -0.3092 0.0 0
M  V30 7 C 5.15 -1.0585 0.0 0
M  V30 8 O 5.1381 -2.5571 0.0 0
M  V30 9 N 6.4465 -0.2973 0.0 0
M  V30 10 C 7.7429 -1.0466 0.0 0
M  V30 11 C 9.0393 -0.2854 0.0 0
M  V30 12 N 10.3358 -1.0347 0.0 0
M  V30 13 C 10.4785 -2.5215 0.0 0
M  V30 14 C 11.7036 -0.4043 0.0 0
M  V30 15 N 11.9415 -2.8188 0.0 0
M  V30 16 C 12.7027 -1.5105 0.0 0
M  V30 END ATOM
M  V30 BEGIN BOND
M  V30 1 1 1 2
M  V30 2 2 2 3
M  V30 3 1 2 4
M  V30 4 1 3 5
M  V30 5 2 4 6
M  V30 6 1 6 7
M  V30 7 2 7 8
M  V30 8 1 7 9
M  V30 9 1 9 10
M  V30 10 1 10 11
M  V30 11 1 11 12
M  V30 12 1 12 13
M  V30 13 1 12 14
M  V30 14 2 13 15
M  V30 15 2 14 16
M  V30 16 1 5 6
M  V30 17 1 15 16
M  V30 END BOND
M  V30 END CTAB
M  END
>  <Structure No>
197

>  <Catalog ID>
Z253447110

>  <MW (desalted)>
283.125

>  <ClogP>
1.025

>  <HBD>
2

>  <TPSA>
62.710

>  <RotBonds>
4

>  <Target>
CHK1

>  <fromRegid>


>  <Similarity>


$$$$
Compound 198
Actelion Java MolfileCreator 2.0

  0  0  0  0  0  0              0 V3000
M  V30 BEGIN CTAB
M  V30 COUNTS 16 18 0 0 0
M  V30 BEGIN ATOM
M  V30 1 O 0.0 0.0 0.0 0
M  V30 2 C -0.0118 -1.4953 0.0 0
M  V30 3 N 1.2817 -2.2311 0.0 0
M  V30 4 C -1.3291 -2.2311 0.0 0
M  V30 5 C 1.2698 -3.7264 0.0 0
M  V30 6 C -1.341 -3.7264 0.0 0
M  V30 7 C -2.777 -1.7564 0.0 0
M  V30 8 N -0.0474 -4.4622 0.0 0
M  V30 9 C 2.5634 -4.4622 0.0 0
M  V30 10 C -2.7889 -4.1774 0.0 0
M  V30 11 C -3.6789 -2.9669 0.0 0
M  V30 12 C 3.8569 -3.7027 0.0 0
M  V30 13 C 2.5515 -5.9575 0.0 0
M  V30 14 C 5.1505 -4.4385 0.0 0
M  V30 15 C 3.8451 -6.7052 0.0 0
M  V30 16 C 5.1387 -5.9338 0.0 0
M  V30 END ATOM
M  V30 BEGIN BOND
M  V30 1 2 1 2
M  V30 2 1 2 3
M  V30 3 1 2 4
M  V30 4 1 3 5
M  V30 5 2 4 6
M  V30 6 1 4 7
M  V30 7 2 5 8
M  V30 8 1 5 9
M  V30 9 1 6 10
M  V30 10 1 7 11
M  V30 11 2 9 12
M  V30 12 1 9 13
M  V30 13 1 12 14
M  V30 14 2 13 15
M  V30 15 2 14 16
M  V30 16 1 6 8
M  V30 17 1 10 11
M  V30 18 1 15 16
M  V30 END BOND
M  V30 END CTAB
M  END
>  <Structure No>
198

>  <Catalog ID>
Z813019964

>  <MW (desalted)>
212.247

>  <ClogP>
1.822

>  <HBD>
1

>  <TPSA>
41.460

>  <RotBonds>
1

>  <Target>
Poly [ADP-ribose] polymerase-1

>  <fromRegid>
CHEMBL2419891

>  <Similarity>
0.88

$$$$
Compound 199
Actelion Java MolfileCreator 2.0

  0  0  0  0  0  0              0 V3000
M  V30 BEGIN CTAB
M  V30 COUNTS 17 17 0 0 0
M  V30 BEGIN ATOM
M  V30 1 Br 0.0 0.0 0.0 0
M  V30 2 C 1.2884 0.7565 0.0 0
M  V30 3 C 1.4303 2.2578 0.0 0
M  V30 4 C 2.6479 0.1536 0.0 0
M  V30 5 N 2.8843 2.5769 0.0 0
M  V30 6 C 3.6408 1.2766 0.0 0
M  V30 7 C 5.1184 1.1348 0.0 0
M  V30 8 O 5.7213 -0.2245 0.0 0
M  V30 9 N 5.9932 2.3642 0.0 0
M  V30 10 C 5.5204 3.8063 0.0 0
M  V30 11 C 7.4827 2.376 0.0 0
M  V30 12 C 6.7261 4.7047 0.0 0 CFG=2
M  V30 13 C 7.9318 3.8181 0.0 0
M  V30 14 C 6.7143 6.2178 0.0 0
M  V30 15 N 8.0028 6.9743 0.0 0
M  V30 16 C 7.991 8.4874 0.0 0
M  V30 17 Cl -3.499 2.9316 0.0 0
M  V30 END ATOM
M  V30 BEGIN BOND
M  V30 1 1 1 2
M  V30 2 2 2 3
M  V30 3 1 2 4
M  V30 4 1 3 5
M  V30 5 2 4 6
M  V30 6 1 6 7
M  V30 7 2 7 8
M  V30 8 1 7 9
M  V30 9 1 9 10
M  V30 10 1 9 11
M  V30 11 1 10 12
M  V30 12 1 11 13
M  V30 13 1 12 14 CFG=1
M  V30 14 1 14 15
M  V30 15 1 15 16
M  V30 16 1 5 6
M  V30 17 1 12 13
M  V30 END BOND
M  V30 BEGIN COLLECTION
M  V30 MDLV30/STERAC1 ATOMS=(1 12)
M  V30 END COLLECTION
M  V30 END CTAB
M  END
>  <Structure No>
199

>  <Catalog ID>
Z1457020715

>  <MW (desalted)>
286.168

>  <ClogP>
-0.003

>  <HBD>
2

>  <TPSA>
48.130

>  <RotBonds>
3

>  <Target>
CHK1

>  <fromRegid>


>  <Similarity>


$$$$
Compound 200
Actelion Java MolfileCreator 2.0

  0  0  0  0  0  0              0 V3000
M  V30 BEGIN CTAB
M  V30 COUNTS 16 16 0 0 0
M  V30 BEGIN ATOM
M  V30 1 O 0.0 0.0 0.0 0
M  V30 2 C -1.3062 -0.7296 0.0 0
M  V30 3 N -1.318 -2.2124 0.0 0
M  V30 4 C -2.6125 0.0235 0.0 0
M  V30 5 C -0.0353 -2.9538 0.0 0
M  V30 6 C -3.9187 -0.706 0.0 0
M  V30 7 C -2.6242 1.5298 0.0 0
M  V30 8 C -5.225 0.047 0.0 0
M  V30 9 C -3.9305 2.283 0.0 0
M  V30 10 N -6.5313 -0.6825 0.0 0
M  V30 11 C -5.2368 1.5533 0.0 0
M  V30 12 C -7.8375 0.0706 0.0 0
M  V30 13 O -7.8493 1.5769 0.0 0
M  V30 14 C -9.1438 -0.659 0.0 0
M  V30 15 C -10.45 0.0941 0.0 0
M  V30 16 C -11.7563 -0.6354 0.0 0
M  V30 END ATOM
M  V30 BEGIN BOND
M  V30 1 2 1 2
M  V30 2 1 2 3
M  V30 3 1 2 4
M  V30 4 1 3 5
M  V30 5 2 4 6
M  V30 6 1 4 7
M  V30 7 1 6 8
M  V30 8 2 7 9
M  V30 9 1 8 10
M  V30 10 2 8 11
M  V30 11 1 10 12
M  V30 12 2 12 13
M  V30 13 1 12 14
M  V30 14 1 14 15
M  V30 15 1 15 16
M  V30 16 1 9 11
M  V30 END BOND
M  V30 END CTAB
M  END
>  <Structure No>
200

>  <Catalog ID>
Z29131286

>  <MW (desalted)>
220.268

>  <ClogP>
1.232

>  <HBD>
2

>  <TPSA>
58.200

>  <RotBonds>
4

>  <Target>
Poly [ADP-ribose] polymerase-1

>  <fromRegid>
CHEMBL3414777

>  <Similarity>
0.88

$$$$
Compound 201
Actelion Java MolfileCreator 2.0

  0  0  0  0  0  0              0 V3000
M  V30 BEGIN CTAB
M  V30 COUNTS 16 17 0 0 0
M  V30 BEGIN ATOM
M  V30 1 O 0.0 0.0 0.0 0
M  V30 2 C -1.3144 -0.7342 0.0 0
M  V30 3 N -2.6289 0.0236 0.0 0
M  V30 4 C -1.3263 -2.2263 0.0 0
M  V30 5 C -2.6408 1.5394 0.0 0
M  V30 6 C -3.9434 -0.7105 0.0 0
M  V30 7 N -2.5579 -3.1026 0.0 0
M  V30 8 C -0.1184 -3.1026 0.0 0
M  V30 9 N -2.1079 -4.5237 0.0 0
M  V30 10 C -0.5921 -4.5237 0.0 0
M  V30 11 C 0.2842 -5.7316 0.0 0
M  V30 12 C 1.7644 -5.5658 0.0 0
M  V30 13 C -0.3434 -7.0935 0.0 0
M  V30 14 C 2.6408 -6.7737 0.0 0
M  V30 15 C 0.5329 -8.3014 0.0 0
M  V30 16 C 2.0131 -8.1356 0.0 0
M  V30 END ATOM
M  V30 BEGIN BOND
M  V30 1 2 1 2
M  V30 2 1 2 3
M  V30 3 1 2 4
M  V30 4 1 3 5
M  V30 5 1 3 6
M  V30 6 2 4 7
M  V30 7 1 4 8
M  V30 8 1 7 9
M  V30 9 2 8 10
M  V30 10 1 10 11
M  V30 11 2 11 12
M  V30 12 1 11 13
M  V30 13 1 12 14
M  V30 14 2 13 15
M  V30 15 2 14 16
M  V30 16 1 9 10
M  V30 17 1 15 16
M  V30 END BOND
M  V30 END CTAB
M  END
>  <Structure No>
201

>  <Catalog ID>
Z116443582

>  <MW (desalted)>
215.251

>  <ClogP>
1.441

>  <HBD>
1

>  <TPSA>
48.990

>  <RotBonds>
2

>  <Target>
Serine/threonine-protein kinase Chk1

>  <fromRegid>
CHEMBL1995916

>  <Similarity>
0.95

$$$$
Compound 202
Actelion Java MolfileCreator 2.0

  0  0  0  0  0  0              0 V3000
M  V30 BEGIN CTAB
M  V30 COUNTS 16 17 0 0 0
M  V30 BEGIN ATOM
M  V30 1 S 0.0 0.0 0.0 0
M  V30 2 C -1.1142 1.0087 0.0 0
M  V30 3 C -0.6216 -1.3488 0.0 0
M  V30 4 N -1.126 2.51 0.0 0
M  V30 5 N -2.4162 0.2815 0.0 0
M  V30 6 C -2.1112 -1.1846 0.0 0
M  V30 7 C -2.4279 3.2724 0.0 0
M  V30 8 C -3.7181 1.0321 0.0 0
M  V30 9 C -3.7298 2.5335 0.0 0
M  V30 10 O -5.02 0.3049 0.0 0
M  V30 11 C -5.0318 3.2959 0.0 0
M  V30 12 O -5.0435 4.7972 0.0 0
M  V30 13 O -6.3337 2.5569 0.0 0
M  V30 14 C -7.6357 3.3193 0.0 0
M  V30 15 C -8.9376 2.5804 0.0 0
M  V30 16 C -10.2395 3.3428 0.0 0
M  V30 END ATOM
M  V30 BEGIN BOND
M  V30 1 1 1 2
M  V30 2 1 1 3
M  V30 3 2 2 4
M  V30 4 1 2 5
M  V30 5 2 3 6
M  V30 6 1 4 7
M  V30 7 1 5 8
M  V30 8 2 7 9
M  V30 9 2 8 10
M  V30 10 1 9 11
M  V30 11 2 11 12
M  V30 12 1 11 13
M  V30 13 1 13 14
M  V30 14 1 14 15
M  V30 15 1 15 16
M  V30 16 1 5 6
M  V30 17 1 8 9
M  V30 END BOND
M  V30 END CTAB
M  END
>  <Structure No>
202

>  <Catalog ID>
Z448231276

>  <MW (desalted)>
238.263

>  <ClogP>
1.060

>  <HBD>
0

>  <TPSA>
58.970

>  <RotBonds>
4

>  <Target>
Serine/threonine-protein kinase Chk1

>  <fromRegid>
CHEMBL1971679

>  <Similarity>
0.88

$$$$
Compound 203
Actelion Java MolfileCreator 2.0

  0  0  0  0  0  0              0 V3000
M  V30 BEGIN CTAB
M  V30 COUNTS 16 18 0 0 0
M  V30 BEGIN ATOM
M  V30 1 N 0.0 0.0 0.0 0
M  V30 2 C -1.3061 0.753 0.0 0
M  V30 3 C -0.0117 -1.4826 0.0 0
M  V30 4 N -1.3178 2.2592 0.0 0
M  V30 5 C -2.6122 0.0235 0.0 0
M  V30 6 N -1.3178 -2.2121 0.0 0
M  V30 7 C -0.0353 3.0122 0.0 0
M  V30 8 C -2.6239 3.0122 0.0 0
M  V30 9 N -4.0477 0.4942 0.0 0
M  V30 10 C -2.6239 -1.459 0.0 0
M  V30 11 C -0.047 4.5184 0.0 0
M  V30 12 C -2.6357 4.5184 0.0 0
M  V30 13 C -4.942 -0.706 0.0 0
M  V30 14 N -4.0595 -1.9062 0.0 0
M  V30 15 C -1.3531 5.2832 0.0 0
M  V30 16 C -1.3649 6.7893 0.0 0
M  V30 END ATOM
M  V30 BEGIN BOND
M  V30 1 2 1 2
M  V30 2 1 1 3
M  V30 3 1 2 4
M  V30 4 1 2 5
M  V30 5 2 3 6
M  V30 6 1 4 7
M  V30 7 1 4 8
M  V30 8 1 5 9
M  V30 9 2 5 10
M  V30 10 1 7 11
M  V30 11 1 8 12
M  V30 12 2 9 13
M  V30 13 1 10 14
M  V30 14 1 11 15
M  V30 15 1 15 16
M  V30 16 1 6 10
M  V30 17 1 12 15
M  V30 18 1 13 14
M  V30 END BOND
M  V30 END CTAB
M  END
>  <Structure No>
203

>  <Catalog ID>
Z57745257

>  <MW (desalted)>
217.270

>  <ClogP>
1.930

>  <HBD>
1

>  <TPSA>
57.700

>  <RotBonds>
1

>  <Target>
Serine/threonine-protein kinase Chk2

>  <fromRegid>
CHEMBL2420911

>  <Similarity>
0.92

$$$$
Compound 204
Actelion Java MolfileCreator 2.0

  0  0  0  0  0  0              0 V3000
M  V30 BEGIN CTAB
M  V30 COUNTS 16 17 0 0 0
M  V30 BEGIN ATOM
M  V30 1 O 0.0 0.0 0.0 0
M  V30 2 C 1.2933 -0.7356 0.0 0
M  V30 3 N 1.2814 -2.2306 0.0 0
M  V30 4 C 2.5866 0.0237 0.0 0
M  V30 5 C -0.0355 -2.9781 0.0 0
M  V30 6 C 2.5747 1.5424 0.0 0
M  V30 7 C 3.8799 -0.7119 0.0 0
M  V30 8 C -0.0474 -4.4732 0.0 0
M  V30 9 C 3.868 2.3018 0.0 0
M  V30 10 C 5.1732 0.0474 0.0 0
M  V30 11 C 1.2458 -5.2207 0.0 0
M  V30 12 C -1.3645 -5.2207 0.0 0
M  V30 13 N 5.1614 1.5662 0.0 0
M  V30 14 C 1.2339 -6.7157 0.0 0
M  V30 15 C -1.3763 -6.7157 0.0 0
M  V30 16 C -0.083 -7.4514 0.0 0
M  V30 END ATOM
M  V30 BEGIN BOND
M  V30 1 2 1 2
M  V30 2 1 2 3
M  V30 3 1 2 4
M  V30 4 1 3 5
M  V30 5 2 4 6
M  V30 6 1 4 7
M  V30 7 1 5 8
M  V30 8 1 6 9
M  V30 9 2 7 10
M  V30 10 2 8 11
M  V30 11 1 8 12
M  V30 12 2 9 13
M  V30 13 1 11 14
M  V30 14 2 12 15
M  V30 15 2 14 16
M  V30 16 1 10 13
M  V30 17 1 15 16
M  V30 END BOND
M  V30 END CTAB
M  END
>  <Structure No>
204

>  <Catalog ID>
Z27749507

>  <MW (desalted)>
212.247

>  <ClogP>
2.076

>  <HBD>
1

>  <TPSA>
41.990

>  <RotBonds>
3

>  <Target>
Serine/threonine-protein kinase Chk2

>  <fromRegid>
CHEMBL1977135

>  <Similarity>
0.87

$$$$
Compound 205
Actelion Java MolfileCreator 2.0

  0  0  0  0  0  0              0 V3000
M  V30 BEGIN CTAB
M  V30 COUNTS 16 18 0 0 0
M  V30 BEGIN ATOM
M  V30 1 O 0.0 0.0 0.0 0
M  V30 2 C 1.4885 0.0118 0.0 0
M  V30 3 N 2.3627 1.2404 0.0 0
M  V30 4 C 2.3627 -1.1931 0.0 0
M  V30 5 C 3.7804 0.7915 0.0 0
M  V30 6 C 3.7804 -0.7206 0.0 0
M  V30 7 C 1.8902 -2.6108 0.0 0
M  V30 8 C 5.0681 1.5594 0.0 0
M  V30 9 C 5.0681 -1.4649 0.0 0
M  V30 10 C 0.4134 -2.9061 0.0 0
M  V30 11 C 6.3558 0.8269 0.0 0
M  V30 12 C 6.3558 -0.697 0.0 0
M  V30 13 N -0.7088 -1.8902 0.0 0
M  V30 14 C -0.2126 -4.2647 0.0 0
M  V30 15 C -2.0201 -2.6226 0.0 0
M  V30 16 C -1.713 -4.0993 0.0 0
M  V30 END ATOM
M  V30 BEGIN BOND
M  V30 1 2 1 2
M  V30 2 1 2 3
M  V30 3 1 2 4
M  V30 4 1 3 5
M  V30 5 1 4 6
M  V30 6 2 4 7 CFG=2
M  V30 7 1 5 8
M  V30 8 1 6 9
M  V30 9 1 7 10
M  V30 10 2 8 11
M  V30 11 2 9 12
M  V30 12 1 10 13
M  V30 13 2 10 14
M  V30 14 1 13 15
M  V30 15 1 14 16
M  V30 16 2 5 6
M  V30 17 1 11 12
M  V30 18 2 15 16
M  V30 END BOND
M  V30 END CTAB
M  END
>  <Structure No>
205

>  <Catalog ID>
Z44305885

>  <MW (desalted)>
210.231

>  <ClogP>
1.836

>  <HBD>
2

>  <TPSA>
44.890

>  <RotBonds>
1

>  <Target>
Serine/threonine-protein kinase Chk1

>  <fromRegid>
CHEMBL1996176

>  <Similarity>
1.0

$$$$
Compound 206
Actelion Java MolfileCreator 2.0

  0  0  0  0  0  0              0 V3000
M  V30 BEGIN CTAB
M  V30 COUNTS 16 17 0 0 0
M  V30 BEGIN ATOM
M  V30 1 O 0.0 0.0 0.0 0
M  V30 2 C -1.3141 0.7577 0.0 0
M  V30 3 N -1.3259 2.2731 0.0 0
M  V30 4 N -2.6283 0.0118 0.0 0
M  V30 5 C -0.0355 3.0308 0.0 0
M  V30 6 C -2.6401 -1.4799 0.0 0
M  V30 7 C 1.2549 2.2968 0.0 0
M  V30 8 C -0.0473 4.5462 0.0 0
M  V30 9 C -1.3496 -2.2257 0.0 0
M  V30 10 C -3.9543 -2.2257 0.0 0
M  V30 11 N 2.5454 3.0545 0.0 0
M  V30 12 C 1.2431 5.3039 0.0 0
M  V30 13 C -1.3615 -3.7175 0.0 0
M  V30 14 C -3.9661 -3.7175 0.0 0
M  V30 15 C 2.5335 4.5699 0.0 0
M  V30 16 C -2.6756 -4.4515 0.0 0
M  V30 END ATOM
M  V30 BEGIN BOND
M  V30 1 2 1 2
M  V30 2 1 2 3
M  V30 3 1 2 4
M  V30 4 1 3 5
M  V30 5 1 4 6
M  V30 6 2 5 7
M  V30 7 1 5 8
M  V30 8 1 6 9
M  V30 9 1 6 10
M  V30 10 1 7 11
M  V30 11 2 8 12
M  V30 12 1 9 13
M  V30 13 1 10 14
M  V30 14 2 11 15
M  V30 15 1 13 16
M  V30 16 1 12 15
M  V30 17 1 14 16
M  V30 END BOND
M  V30 END CTAB
M  END
>  <Structure No>
206

>  <Catalog ID>
Z44592328

>  <MW (desalted)>
219.283

>  <ClogP>
2.607

>  <HBD>
2

>  <TPSA>
54.020

>  <RotBonds>
2

>  <Target>
Serine/threonine-protein kinase Chk2

>  <fromRegid>
CHEMBL1998193

>  <Similarity>
0.86

$$$$
Compound 207
Actelion Java MolfileCreator 2.0

  0  0  0  0  0  0              0 V3000
M  V30 BEGIN CTAB
M  V30 COUNTS 16 17 0 0 0
M  V30 BEGIN ATOM
M  V30 1 O 0.0 0.0 0.0 0
M  V30 2 C -0.0118 -1.4872 0.0 0
M  V30 3 N -1.322 -2.2309 0.0 0
M  V30 4 C 1.2748 -2.2309 0.0 0
M  V30 5 C -2.6322 -1.4636 0.0 0
M  V30 6 N 1.263 -3.7181 0.0 0
M  V30 7 C 2.5614 -1.4636 0.0 0
M  V30 8 C -3.9424 -2.2073 0.0 0
M  V30 9 C -2.644 0.0472 0.0 0
M  V30 10 C 2.5496 -4.45 0.0 0
M  V30 11 N 3.848 -2.2073 0.0 0
M  V30 12 N 2.5496 0.0472 0.0 0
M  V30 13 C -5.2526 -1.44 0.0 0
M  V30 14 C -3.9542 0.8026 0.0 0
M  V30 15 C 3.8362 -3.6945 0.0 0
M  V30 16 C -5.2644 0.0708 0.0 0
M  V30 END ATOM
M  V30 BEGIN BOND
M  V30 1 2 1 2
M  V30 2 1 2 3
M  V30 3 1 2 4
M  V30 4 1 3 5
M  V30 5 2 4 6
M  V30 6 1 4 7
M  V30 7 2 5 8
M  V30 8 1 5 9
M  V30 9 1 6 10
M  V30 10 2 7 11
M  V30 11 1 7 12
M  V30 12 1 8 13
M  V30 13 2 9 14
M  V30 14 2 10 15
M  V30 15 2 13 16
M  V30 16 1 11 15
M  V30 17 1 14 16
M  V30 END BOND
M  V30 END CTAB
M  END
>  <Structure No>
207

>  <Catalog ID>
Z224484568

>  <MW (desalted)>
214.223

>  <ClogP>
1.711

>  <HBD>
2

>  <TPSA>
80.900

>  <RotBonds>
2

>  <Target>
Serine-protein kinase ATM

>  <fromRegid>
CHEMBL1766760

>  <Similarity>
1.0

$$$$
Compound 208
Actelion Java MolfileCreator 2.0

  0  0  0  0  0  0              0 V3000
M  V30 BEGIN CTAB
M  V30 COUNTS 16 18 0 0 0
M  V30 BEGIN ATOM
M  V30 1 O 0.0 0.0 0.0 0
M  V30 2 C 1.2886 0.7684 0.0 0
M  V30 3 N 1.2768 2.2817 0.0 0
M  V30 4 N 2.5773 0.0236 0.0 0
M  V30 5 C 2.5654 3.0502 0.0 0
M  V30 6 C 3.8659 0.7921 0.0 0
M  V30 7 O 2.5536 4.5635 0.0 0
M  V30 8 C 3.8541 2.3054 0.0 0
M  V30 9 C 5.1546 0.0472 0.0 0
M  V30 10 C 5.1428 3.0738 0.0 0
M  V30 11 C 6.4433 0.8157 0.0 0
M  V30 12 C 6.4314 2.329 0.0 0
M  V30 13 C 7.7319 0.0709 0.0 0
M  V30 14 C 7.7201 3.0975 0.0 0
M  V30 15 C 9.0206 0.8394 0.0 0
M  V30 16 C 9.0088 2.3526 0.0 0
M  V30 END ATOM
M  V30 BEGIN BOND
M  V30 1 2 1 2
M  V30 2 1 2 3
M  V30 3 1 2 4
M  V30 4 1 3 5
M  V30 5 1 4 6
M  V30 6 2 5 7
M  V30 7 1 5 8
M  V30 8 2 6 9
M  V30 9 2 8 10
M  V30 10 1 9 11
M  V30 11 1 10 12
M  V30 12 2 11 13
M  V30 13 2 12 14
M  V30 14 1 13 15
M  V30 15 1 14 16
M  V30 16 1 6 8
M  V30 17 1 11 12
M  V30 18 2 15 16
M  V30 END BOND
M  V30 END CTAB
M  END
>  <Structure No>
208

>  <Catalog ID>
Z1509143765

>  <MW (desalted)>
212.204

>  <ClogP>
1.712

>  <HBD>
2

>  <TPSA>
58.200

>  <RotBonds>
0

>  <Target>
Poly [ADP-ribose] polymerase-1

>  <fromRegid>
CHEMBL421646

>  <Similarity>
0.94

$$$$
Compound 209
Actelion Java MolfileCreator 2.0

  0  0  0  0  0  0              0 V3000
M  V30 BEGIN CTAB
M  V30 COUNTS 16 17 0 0 0
M  V30 BEGIN ATOM
M  V30 1 O 0.0 0.0 0.0 0
M  V30 2 C -0.0118 -1.4897 0.0 0
M  V30 3 N 1.2768 -2.2227 0.0 0
M  V30 4 C -1.3241 -2.2227 0.0 0
M  V30 5 C 1.265 -3.7124 0.0 0
M  V30 6 C 2.5656 -1.466 0.0 0
M  V30 7 C -1.336 -3.7124 0.0 0
M  V30 8 C -2.6365 -1.466 0.0 0
M  V30 9 C -0.0472 -4.4573 0.0 0
M  V30 10 C -2.6483 -4.4573 0.0 0
M  V30 11 C -3.9489 -2.1991 0.0 0
M  V30 12 N -2.6602 -5.947 0.0 0
M  V30 13 C -3.9607 -3.7006 0.0 0
M  V30 14 C -3.9725 -6.6918 0.0 0
M  V30 15 O -5.2849 -5.9233 0.0 0
M  V30 16 C -3.9843 -8.1816 0.0 0
M  V30 END ATOM
M  V30 BEGIN BOND
M  V30 1 2 1 2
M  V30 2 1 2 3
M  V30 3 1 2 4
M  V30 4 1 3 5
M  V30 5 1 3 6
M  V30 6 2 4 7
M  V30 7 1 4 8
M  V30 8 2 5 9
M  V30 9 1 7 10
M  V30 10 2 8 11
M  V30 11 1 10 12
M  V30 12 2 10 13
M  V30 13 1 12 14
M  V30 14 2 14 15
M  V30 15 1 14 16
M  V30 16 1 7 9
M  V30 17 1 11 13
M  V30 END BOND
M  V30 END CTAB
M  END
>  <Structure No>
209

>  <Catalog ID>
Z1509182834

>  <MW (desalted)>
216.236

>  <ClogP>
0.662

>  <HBD>
1

>  <TPSA>
49.410

>  <RotBonds>
1

>  <Target>
Poly [ADP-ribose] polymerase-1

>  <fromRegid>
CHEMBL1767054

>  <Similarity>
0.9

$$$$
Compound 210
Actelion Java MolfileCreator 2.0

  0  0  0  0  0  0              0 V3000
M  V30 BEGIN CTAB
M  V30 COUNTS 16 17 0 0 0
M  V30 BEGIN ATOM
M  V30 1 O 0.0 0.0 0.0 0
M  V30 2 C -0.0117 1.5084 0.0 0
M  V30 3 N -1.3199 2.2744 0.0 0
M  V30 4 C 1.2727 2.2744 0.0 0
M  V30 5 C -1.3316 3.7829 0.0 0
M  V30 6 C 1.2609 3.7829 0.0 0
M  V30 7 C 2.5573 1.532 0.0 0
M  V30 8 N -0.0471 4.5489 0.0 0
M  V30 9 C -2.6398 4.5489 0.0 0
M  V30 10 C 2.5455 4.5489 0.0 0
M  V30 11 C 3.8418 2.298 0.0 0
M  V30 12 C -3.9479 3.8065 0.0 0
M  V30 13 C 3.83 3.8065 0.0 0
M  V30 14 C 5.1264 1.5556 0.0 0
M  V30 15 C 6.4109 2.3216 0.0 0
M  V30 16 C 5.1146 0.0707 0.0 0
M  V30 END ATOM
M  V30 BEGIN BOND
M  V30 1 2 1 2
M  V30 2 1 2 3
M  V30 3 1 2 4
M  V30 4 1 3 5
M  V30 5 2 4 6
M  V30 6 1 4 7
M  V30 7 2 5 8
M  V30 8 1 5 9
M  V30 9 1 6 10
M  V30 10 2 7 11
M  V30 11 1 9 12
M  V30 12 2 10 13
M  V30 13 1 11 14
M  V30 14 1 14 15
M  V30 15 1 14 16
M  V30 16 1 6 8
M  V30 17 1 11 13
M  V30 END BOND
M  V30 END CTAB
M  END
>  <Structure No>
210

>  <Catalog ID>
Z951212366

>  <MW (desalted)>
216.279

>  <ClogP>
2.760

>  <HBD>
1

>  <TPSA>
41.460

>  <RotBonds>
2

>  <Target>
Poly [ADP-ribose] polymerase-1

>  <fromRegid>
CHEMBL1949864

>  <Similarity>
0.85

$$$$
Compound 211
Actelion Java MolfileCreator 2.0

  0  0  0  0  0  0              0 V3000
M  V30 BEGIN CTAB
M  V30 COUNTS 16 18 0 0 0
M  V30 BEGIN ATOM
M  V30 1 S 0.0 0.0 0.0 0
M  V30 2 C -1.2305 -0.8706 0.0 0
M  V30 3 C 1.2073 -0.8706 0.0 0
M  V30 4 N -2.7165 -0.5456 0.0 0
M  V30 5 C -0.7778 -2.287 0.0 0
M  V30 6 C 0.7313 -2.287 0.0 0
M  V30 7 C 2.6701 -0.5456 0.0 0
M  V30 8 C -3.7381 -1.6485 0.0 0
M  V30 9 C -1.7994 -3.3899 0.0 0
M  V30 10 C 1.7297 -3.3899 0.0 0
M  V30 11 C 3.6685 -1.6485 0.0 0
M  V30 12 N -3.2854 -3.0648 0.0 0
M  V30 13 O -1.3466 -4.8062 0.0 0
M  V30 14 C 3.1925 -3.0648 0.0 0
M  V30 15 C -4.307 -4.1677 0.0 0
M  V30 16 C -5.793 -3.8426 0.0 0
M  V30 END ATOM
M  V30 BEGIN BOND
M  V30 1 1 1 2
M  V30 2 1 1 3
M  V30 3 1 2 4
M  V30 4 2 2 5
M  V30 5 2 3 6
M  V30 6 1 3 7
M  V30 7 2 4 8
M  V30 8 1 5 9
M  V30 9 1 6 10
M  V30 10 1 7 11
M  V30 11 1 8 12
M  V30 12 2 9 13
M  V30 13 1 10 14
M  V30 14 1 12 15
M  V30 15 1 15 16
M  V30 16 1 5 6
M  V30 17 1 9 12
M  V30 18 1 11 14
M  V30 END BOND
M  V30 END CTAB
M  END
>  <Structure No>
211

>  <Catalog ID>
Z152822648

>  <MW (desalted)>
234.317

>  <ClogP>
2.527

>  <HBD>
0

>  <TPSA>
32.670

>  <RotBonds>
1

>  <Target>
Serine/threonine-protein kinase Chk1

>  <fromRegid>
CHEMBL539906

>  <Similarity>
0.92

$$$$
Compound 212
Actelion Java MolfileCreator 2.0

  0  0  0  0  0  0              0 V3000
M  V30 BEGIN CTAB
M  V30 COUNTS 16 18 0 0 0
M  V30 BEGIN ATOM
M  V30 1 S 0.0 0.0 0.0 0
M  V30 2 C -1.2305 -0.8706 0.0 0
M  V30 3 C 1.2073 -0.8706 0.0 0
M  V30 4 N -2.7165 -0.5456 0.0 0
M  V30 5 C -0.7778 -2.287 0.0 0
M  V30 6 C 0.7313 -2.287 0.0 0
M  V30 7 C 2.6701 -0.5456 0.0 0
M  V30 8 C -3.7381 -1.6485 0.0 0
M  V30 9 C -1.7994 -3.3899 0.0 0
M  V30 10 C 1.7297 -3.3899 0.0 0
M  V30 11 C 3.6685 -1.6485 0.0 0
M  V30 12 N -3.2854 -3.0648 0.0 0
M  V30 13 C -5.2241 -1.3234 0.0 0
M  V30 14 O -1.3466 -4.8062 0.0 0
M  V30 15 C 3.1925 -3.0648 0.0 0
M  V30 16 C -6.2457 -2.4263 0.0 0
M  V30 END ATOM
M  V30 BEGIN BOND
M  V30 1 1 1 2
M  V30 2 1 1 3
M  V30 3 1 2 4
M  V30 4 2 2 5
M  V30 5 2 3 6
M  V30 6 1 3 7
M  V30 7 2 4 8
M  V30 8 1 5 9
M  V30 9 1 6 10
M  V30 10 1 7 11
M  V30 11 1 8 12
M  V30 12 1 8 13
M  V30 13 2 9 14
M  V30 14 1 10 15
M  V30 15 1 13 16
M  V30 16 1 5 6
M  V30 17 1 9 12
M  V30 18 1 11 15
M  V30 END BOND
M  V30 END CTAB
M  END
>  <Structure No>
212

>  <Catalog ID>
Z56757214

>  <MW (desalted)>
234.317

>  <ClogP>
2.724

>  <HBD>
1

>  <TPSA>
41.460

>  <RotBonds>
1

>  <Target>
Serine/threonine-protein kinase Chk1

>  <fromRegid>
CHEMBL539906

>  <Similarity>
0.89

$$$$
Compound 213
Actelion Java MolfileCreator 2.0

  0  0  0  0  0  0              0 V3000
M  V30 BEGIN CTAB
M  V30 COUNTS 16 17 0 0 0
M  V30 BEGIN ATOM
M  V30 1 O 0.0 0.0 0.0 0
M  V30 2 C -1.3038 0.7517 0.0 0
M  V30 3 N -1.3156 2.2553 0.0 0
M  V30 4 N -2.6077 0.0234 0.0 0
M  V30 5 C -2.6195 3.0071 0.0 0
M  V30 6 C -0.0352 3.0071 0.0 0
M  V30 7 C -3.9116 0.7752 0.0 0
M  V30 8 C -2.6195 -1.4565 0.0 0
M  V30 9 O -2.6312 4.5107 0.0 0
M  V30 10 C -3.9233 2.2788 0.0 0
M  V30 11 N -5.3447 0.3289 0.0 0
M  V30 12 N -5.3564 2.7487 0.0 0
M  V30 13 C -6.2374 1.5505 0.0 0
M  V30 14 C -5.8263 4.1818 0.0 0
M  V30 15 C -7.2946 4.4989 0.0 0
M  V30 16 N -8.763 4.8161 0.0 0
M  V30 END ATOM
M  V30 BEGIN BOND
M  V30 1 2 1 2
M  V30 2 1 2 3
M  V30 3 1 2 4
M  V30 4 1 3 5
M  V30 5 1 3 6
M  V30 6 1 4 7
M  V30 7 1 4 8
M  V30 8 2 5 9
M  V30 9 1 5 10
M  V30 10 1 7 11
M  V30 11 1 10 12
M  V30 12 2 11 13
M  V30 13 1 12 14
M  V30 14 1 14 15
M  V30 15 3 15 16
M  V30 16 2 7 10
M  V30 17 1 12 13
M  V30 END BOND
M  V30 END CTAB
M  END
>  <Structure No>
213

>  <Catalog ID>
Z73835882

>  <MW (desalted)>
219.200

>  <ClogP>
-0.902

>  <HBD>
0

>  <TPSA>
82.230

>  <RotBonds>
1

>  <Target>
Serine-protein kinase ATM

>  <fromRegid>
CHEMBL113

>  <Similarity>
0.91

$$$$
Compound 214
Actelion Java MolfileCreator 2.0

  0  0  0  0  0  0              0 V3000
M  V30 BEGIN CTAB
M  V30 COUNTS 16 17 0 0 0
M  V30 BEGIN ATOM
M  V30 1 O 0.0 0.0 0.0 0
M  V30 2 C -1.3042 0.7519 0.0 0
M  V30 3 N -1.3159 2.2559 0.0 0
M  V30 4 N -2.6084 0.0234 0.0 0
M  V30 5 C -2.6201 3.0079 0.0 0
M  V30 6 C -0.0352 3.0079 0.0 0
M  V30 7 C -3.9126 0.7754 0.0 0
M  V30 8 C -2.6201 -1.4569 0.0 0
M  V30 9 O -2.6319 4.5118 0.0 0
M  V30 10 C -3.9244 2.2794 0.0 0
M  V30 11 N -5.3461 0.3289 0.0 0
M  V30 12 N -5.3578 2.7494 0.0 0
M  V30 13 C -6.2391 1.5509 0.0 0
M  V30 14 C -5.8278 4.1829 0.0 0
M  V30 15 C -4.8408 5.2991 0.0 0
M  V30 16 C -5.3108 6.7325 0.0 0
M  V30 END ATOM
M  V30 BEGIN BOND
M  V30 1 2 1 2
M  V30 2 1 2 3
M  V30 3 1 2 4
M  V30 4 1 3 5
M  V30 5 1 3 6
M  V30 6 1 4 7
M  V30 7 1 4 8
M  V30 8 2 5 9
M  V30 9 1 5 10
M  V30 10 1 7 11
M  V30 11 1 10 12
M  V30 12 2 11 13
M  V30 13 1 12 14
M  V30 14 1 14 15
M  V30 15 2 15 16
M  V30 16 2 7 10
M  V30 17 1 12 13
M  V30 END BOND
M  V30 END CTAB
M  END
>  <Structure No>
214

>  <Catalog ID>
Z112207588

>  <MW (desalted)>
220.228

>  <ClogP>
0.734

>  <HBD>
0

>  <TPSA>
58.440

>  <RotBonds>
2

>  <Target>
Serine-protein kinase ATM

>  <fromRegid>
CHEMBL113

>  <Similarity>
0.91

$$$$
Compound 215
Actelion Java MolfileCreator 2.0

  0  0  0  0  0  0              0 V3000
M  V30 BEGIN CTAB
M  V30 COUNTS 16 18 0 0 0
M  V30 BEGIN ATOM
M  V30 1 N 0.0 0.0 0.0 0
M  V30 2 C -1.3077 0.754 0.0 0
M  V30 3 C -0.0117 -1.4845 0.0 0
M  V30 4 N -1.3195 2.2621 0.0 0
M  V30 5 C -2.6155 0.0235 0.0 0
M  V30 6 N -1.3195 -2.215 0.0 0
M  V30 7 C -2.6745 2.9219 0.0 0
M  V30 8 C 0.0117 2.9219 0.0 0
M  V30 9 N -4.0529 0.4948 0.0 0
M  V30 10 C -2.6273 -1.4609 0.0 0
M  V30 11 C -3.0161 4.3946 0.0 0
M  V30 12 C 0.3298 4.3946 0.0 0
M  V30 13 C -4.9484 -0.7069 0.0 0
M  V30 14 N -4.0647 -1.9086 0.0 0
M  V30 15 C -2.0971 5.5728 0.0 0
M  V30 16 C -0.6126 5.5728 0.0 0
M  V30 END ATOM
M  V30 BEGIN BOND
M  V30 1 2 1 2
M  V30 2 1 1 3
M  V30 3 1 2 4
M  V30 4 1 2 5
M  V30 5 2 3 6
M  V30 6 1 4 7
M  V30 7 1 4 8
M  V30 8 1 5 9
M  V30 9 2 5 10
M  V30 10 1 7 11
M  V30 11 1 8 12
M  V30 12 2 9 13
M  V30 13 1 10 14
M  V30 14 1 11 15
M  V30 15 1 12 16
M  V30 16 1 6 10
M  V30 17 1 13 14
M  V30 18 1 15 16
M  V30 END BOND
M  V30 END CTAB
M  END
>  <Structure No>
215

>  <Catalog ID>
Z57745291

>  <MW (desalted)>
217.270

>  <ClogP>
1.970

>  <HBD>
1

>  <TPSA>
57.700

>  <RotBonds>
1

>  <Target>
Serine/threonine-protein kinase Chk2

>  <fromRegid>
CHEMBL2420911

>  <Similarity>
0.9

$$$$
Compound 216
Actelion Java MolfileCreator 2.0

  0  0  0  0  0  0              0 V3000
M  V30 BEGIN CTAB
M  V30 COUNTS 16 17 0 0 0
M  V30 BEGIN ATOM
M  V30 1 O 0.0 0.0 0.0 0
M  V30 2 C -1.3096 -0.7432 0.0 0
M  V30 3 N -1.3214 -2.2298 0.0 0
M  V30 4 N -2.6192 0.0235 0.0 0
M  V30 5 C -2.631 -2.9731 0.0 0
M  V30 6 C -0.0353 -2.9731 0.0 0
M  V30 7 C -3.9288 -0.7196 0.0 0
M  V30 8 C -2.631 1.5337 0.0 0
M  V30 9 O -2.6428 -4.4597 0.0 0
M  V30 10 C -3.9406 -2.2062 0.0 0
M  V30 11 N -5.3682 -0.2477 0.0 0
M  V30 12 N -5.38 -2.6546 0.0 0
M  V30 13 C -6.2648 -1.4511 0.0 0
M  V30 14 C -5.8519 -4.0703 0.0 0
M  V30 15 C -7.3267 -4.3653 0.0 0
M  V30 16 C -4.8608 -5.1676 0.0 0
M  V30 END ATOM
M  V30 BEGIN BOND
M  V30 1 2 1 2
M  V30 2 1 2 3
M  V30 3 1 2 4
M  V30 4 1 3 5
M  V30 5 1 3 6
M  V30 6 1 4 7
M  V30 7 1 4 8
M  V30 8 2 5 9
M  V30 9 1 5 10
M  V30 10 1 7 11
M  V30 11 1 10 12
M  V30 12 2 11 13
M  V30 13 1 12 14
M  V30 14 1 14 15
M  V30 15 1 14 16
M  V30 16 2 7 10
M  V30 17 1 12 13
M  V30 END BOND
M  V30 END CTAB
M  END
>  <Structure No>
216

>  <Catalog ID>
Z114730422

>  <MW (desalted)>
222.244

>  <ClogP>
0.798

>  <HBD>
0

>  <TPSA>
58.440

>  <RotBonds>
1

>  <Target>
Serine-protein kinase ATM

>  <fromRegid>
CHEMBL113

>  <Similarity>
0.92

$$$$
Compound 217
Actelion Java MolfileCreator 2.0

  0  0  0  0  0  0              0 V3000
M  V30 BEGIN CTAB
M  V30 COUNTS 16 17 0 0 0
M  V30 BEGIN ATOM
M  V30 1 O 0.0 0.0 0.0 0
M  V30 2 C -1.3038 0.7517 0.0 0
M  V30 3 N -1.3156 2.2553 0.0 0
M  V30 4 N -2.6077 0.0234 0.0 0
M  V30 5 C -2.6195 3.0071 0.0 0
M  V30 6 C -0.0352 3.0071 0.0 0
M  V30 7 C -3.9116 0.7752 0.0 0
M  V30 8 C -2.6195 -1.4565 0.0 0
M  V30 9 O -2.6312 4.5107 0.0 0
M  V30 10 C -3.9233 2.2788 0.0 0
M  V30 11 N -5.3447 0.3289 0.0 0
M  V30 12 N -5.3564 2.7487 0.0 0
M  V30 13 C -6.2374 1.5505 0.0 0
M  V30 14 C -5.8263 4.1818 0.0 0
M  V30 15 C -7.2946 4.4989 0.0 0
M  V30 16 C -8.763 4.8161 0.0 0
M  V30 END ATOM
M  V30 BEGIN BOND
M  V30 1 2 1 2
M  V30 2 1 2 3
M  V30 3 1 2 4
M  V30 4 1 3 5
M  V30 5 1 3 6
M  V30 6 1 4 7
M  V30 7 1 4 8
M  V30 8 2 5 9
M  V30 9 1 5 10
M  V30 10 1 7 11
M  V30 11 1 10 12
M  V30 12 2 11 13
M  V30 13 1 12 14
M  V30 14 1 14 15
M  V30 15 3 15 16
M  V30 16 2 7 10
M  V30 17 1 12 13
M  V30 END BOND
M  V30 END CTAB
M  END
>  <Structure No>
217

>  <Catalog ID>
Z112209998

>  <MW (desalted)>
218.212

>  <ClogP>
0.060

>  <HBD>
0

>  <TPSA>
58.440

>  <RotBonds>
1

>  <Target>
Serine-protein kinase ATM

>  <fromRegid>
CHEMBL113

>  <Similarity>
0.93

$$$$
Compound 218
Actelion Java MolfileCreator 2.0

  0  0  0  0  0  0              0 V3000
M  V30 BEGIN CTAB
M  V30 COUNTS 16 17 0 0 0
M  V30 BEGIN ATOM
M  V30 1 O 0.0 0.0 0.0 0
M  V30 2 C -0.0118 -1.4872 0.0 0
M  V30 3 N -1.322 -2.2309 0.0 0
M  V30 4 C 1.2748 -2.2309 0.0 0
M  V30 5 C -2.6322 -1.4636 0.0 0
M  V30 6 N 1.263 -3.7181 0.0 0
M  V30 7 C 2.5614 -1.4636 0.0 0
M  V30 8 C -3.9424 -2.2073 0.0 0
M  V30 9 C -2.644 0.0472 0.0 0
M  V30 10 C 2.5496 -4.45 0.0 0
M  V30 11 N 3.848 -2.2073 0.0 0
M  V30 12 N 2.5496 0.0472 0.0 0
M  V30 13 C -5.2526 -1.44 0.0 0
M  V30 14 C -3.9542 0.8026 0.0 0
M  V30 15 C 3.8362 -3.6945 0.0 0
M  V30 16 N -5.2644 0.0708 0.0 0
M  V30 END ATOM
M  V30 BEGIN BOND
M  V30 1 2 1 2
M  V30 2 1 2 3
M  V30 3 1 2 4
M  V30 4 1 3 5
M  V30 5 2 4 6
M  V30 6 1 4 7
M  V30 7 2 5 8
M  V30 8 1 5 9
M  V30 9 1 6 10
M  V30 10 2 7 11
M  V30 11 1 7 12
M  V30 12 1 8 13
M  V30 13 2 9 14
M  V30 14 2 10 15
M  V30 15 2 13 16
M  V30 16 1 11 15
M  V30 17 1 14 16
M  V30 END BOND
M  V30 END CTAB
M  END
>  <Structure No>
218

>  <Catalog ID>
Z225339688

>  <MW (desalted)>
215.211

>  <ClogP>
0.473

>  <HBD>
2

>  <TPSA>
93.790

>  <RotBonds>
2

>  <Target>
Serine-protein kinase ATM

>  <fromRegid>
CHEMBL1766760

>  <Similarity>
0.88

$$$$
Compound 219
Actelion Java MolfileCreator 2.0

  0  0  0  0  0  0              0 V3000
M  V30 BEGIN CTAB
M  V30 COUNTS 18 20 0 0 0
M  V30 BEGIN ATOM
M  V30 1 S 0.0 0.0 0.0 0
M  V30 2 C -0.8986 -1.2061 0.0 0
M  V30 3 C 1.4189 -0.4493 0.0 0
M  V30 4 N -0.0236 -2.4122 0.0 0
M  V30 5 N -2.4122 -1.1943 0.0 0
M  V30 6 C 1.4071 -1.9392 0.0 0
M  V30 7 C 2.7078 0.3074 0.0 0
M  V30 8 C -3.169 -2.4832 0.0 0
M  V30 9 C 2.696 -2.6724 0.0 0
M  V30 10 C 3.9968 -0.4256 0.0 0
M  V30 11 C -4.6826 -2.4714 0.0 0
M  V30 12 C 3.9849 -1.9156 0.0 0
M  V30 13 C 5.2857 0.331 0.0 0
M  V30 14 C -5.4394 -3.7603 0.0 0
M  V30 15 C -5.4394 -1.1588 0.0 0
M  V30 16 C -6.953 -3.7484 0.0 0
M  V30 17 C -6.953 -1.147 0.0 0
M  V30 18 C -7.7216 -2.4359 0.0 0
M  V30 END ATOM
M  V30 BEGIN BOND
M  V30 1 1 1 2
M  V30 2 1 1 3
M  V30 3 2 2 4
M  V30 4 1 2 5
M  V30 5 2 3 6
M  V30 6 1 3 7
M  V30 7 1 5 8
M  V30 8 1 6 9
M  V30 9 2 7 10
M  V30 10 1 8 11
M  V30 11 2 9 12
M  V30 12 1 10 13
M  V30 13 2 11 14
M  V30 14 1 11 15
M  V30 15 1 14 16
M  V30 16 2 15 17
M  V30 17 2 16 18
M  V30 18 1 4 6
M  V30 19 1 10 12
M  V30 20 1 17 18
M  V30 END BOND
M  V30 END CTAB
M  END
>  <Structure No>
219

>  <Catalog ID>
Z55176420

>  <MW (desalted)>
254.350

>  <ClogP>
4.574

>  <HBD>
1

>  <TPSA>
24.920

>  <RotBonds>
3

>  <Target>
Serine/threonine-protein kinase Chk2

>  <fromRegid>
CHEMBL1983534

>  <Similarity>
0.9

$$$$
Compound 220
Actelion Java MolfileCreator 2.0

  0  0  0  0  0  0              0 V3000
M  V30 BEGIN CTAB
M  V30 COUNTS 20 22 0 0 0
M  V30 BEGIN ATOM
M  V30 1 O 0.0 0.0 0.0 0
M  V30 2 C -0.0117 1.5061 0.0 0
M  V30 3 N -1.3178 2.2592 0.0 0
M  V30 4 C 1.2708 2.2592 0.0 0
M  V30 5 C -1.3296 3.7653 0.0 0
M  V30 6 C 1.259 3.7653 0.0 0
M  V30 7 C 2.5533 1.5179 0.0 0
M  V30 8 N -0.047 4.5184 0.0 0
M  V30 9 C -2.6357 4.5184 0.0 0
M  V30 10 C 2.5416 4.5184 0.0 0
M  V30 11 C 3.8359 2.2709 0.0 0
M  V30 12 N -2.6475 6.0245 0.0 0
M  V30 13 C 3.8241 3.7888 0.0 0
M  V30 14 C -3.9536 6.7776 0.0 0
M  V30 15 C -3.9653 8.2837 0.0 0
M  V30 16 C -5.2715 9.0368 0.0 0
M  V30 17 C -2.6828 9.0368 0.0 0
M  V30 18 C -5.2832 10.543 0.0 0
M  V30 19 C -2.6945 10.543 0.0 0
M  V30 20 C -4.0006 11.3078 0.0 0
M  V30 END ATOM
M  V30 BEGIN BOND
M  V30 1 2 1 2
M  V30 2 1 2 3
M  V30 3 1 2 4
M  V30 4 1 3 5
M  V30 5 2 4 6
M  V30 6 1 4 7
M  V30 7 2 5 8
M  V30 8 1 5 9
M  V30 9 1 6 10
M  V30 10 2 7 11
M  V30 11 1 9 12
M  V30 12 2 10 13
M  V30 13 1 12 14
M  V30 14 1 14 15
M  V30 15 2 15 16
M  V30 16 1 15 17
M  V30 17 1 16 18
M  V30 18 2 17 19
M  V30 19 2 18 20
M  V30 20 1 6 8
M  V30 21 1 11 13
M  V30 22 1 19 20
M  V30 END BOND
M  V30 END CTAB
M  END
>  <Structure No>
220

>  <Catalog ID>
Z44493009

>  <MW (desalted)>
265.310

>  <ClogP>
0.831

>  <HBD>
2

>  <TPSA>
53.490

>  <RotBonds>
4

>  <Target>
parp2

>  <fromRegid>


>  <Similarity>


$$$$
Compound 221
Actelion Java MolfileCreator 2.0

  0  0  0  0  0  0              0 V3000
M  V30 BEGIN CTAB
M  V30 COUNTS 17 19 0 0 0
M  V30 BEGIN ATOM
M  V30 1 S 0.0 0.0 0.0 0
M  V30 2 C -0.8943 1.2237 0.0 0
M  V30 3 C 1.412 0.4706 0.0 0
M  V30 4 N -0.0235 2.4475 0.0 0
M  V30 5 N -2.4004 1.2355 0.0 0
M  V30 6 C 1.4002 1.9768 0.0 0
M  V30 7 C 2.6946 -0.2706 0.0 0
M  V30 8 C -3.1535 -0.047 0.0 0
M  V30 9 C 2.6829 2.7417 0.0 0
M  V30 10 C 3.9772 0.4942 0.0 0
M  V30 11 C -4.6597 -0.0353 0.0 0
M  V30 12 C 3.9655 2.0121 0.0 0
M  V30 13 C -5.4246 -1.3179 0.0 0
M  V30 14 C -5.4246 1.2708 0.0 0
M  V30 15 C -6.9308 -1.3061 0.0 0
M  V30 16 C -6.9308 1.2826 0.0 0
M  V30 17 C -7.6957 0.0 0.0 0
M  V30 END ATOM
M  V30 BEGIN BOND
M  V30 1 1 1 2
M  V30 2 1 1 3
M  V30 3 2 2 4
M  V30 4 1 2 5
M  V30 5 2 3 6
M  V30 6 1 3 7
M  V30 7 1 5 8
M  V30 8 1 6 9
M  V30 9 2 7 10
M  V30 10 1 8 11
M  V30 11 2 9 12
M  V30 12 2 11 13
M  V30 13 1 11 14
M  V30 14 1 13 15
M  V30 15 2 14 16
M  V30 16 2 15 17
M  V30 17 1 4 6
M  V30 18 1 10 12
M  V30 19 1 16 17
M  V30 END BOND
M  V30 END CTAB
M  END
>  <Structure No>
221

>  <Catalog ID>
Z55176258

>  <MW (desalted)>
240.323

>  <ClogP>
4.075

>  <HBD>
1

>  <TPSA>
24.920

>  <RotBonds>
3

>  <Target>
Serine/threonine-protein kinase Chk2

>  <fromRegid>
CHEMBL1983534

>  <Similarity>
0.88

$$$$
Compound 222
Actelion Java MolfileCreator 2.0

  0  0  0  0  0  0              0 V3000
M  V30 BEGIN CTAB
M  V30 COUNTS 20 22 0 0 0
M  V30 BEGIN ATOM
M  V30 1 O 0.0 0.0 0.0 0
M  V30 2 C -1.3086 0.7663 0.0 0
M  V30 3 N -2.6172 0.0235 0.0 0
M  V30 4 C -1.3204 2.2753 0.0 0
M  V30 5 C -2.629 -1.4618 0.0 0
M  V30 6 C -0.0353 3.0298 0.0 0
M  V30 7 C -2.629 3.0298 0.0 0
M  V30 8 C -3.9376 -2.1928 0.0 0
M  V30 9 C -0.0471 4.5389 0.0 0
M  V30 10 C 1.2496 2.2871 0.0 0
M  V30 11 C -2.6408 4.5389 0.0 0
M  V30 12 C -3.9494 -3.6782 0.0 0
M  V30 13 C -5.2462 -1.4383 0.0 0
M  V30 14 C -1.3557 5.2934 0.0 0
M  V30 15 C 1.2378 5.2934 0.0 0
M  V30 16 C 2.5347 3.0416 0.0 0
M  V30 17 C -5.258 -4.421 0.0 0
M  V30 18 C -6.5549 -2.1692 0.0 0
M  V30 19 C 2.5229 4.5625 0.0 0
M  V30 20 C -6.5667 -3.6547 0.0 0
M  V30 END ATOM
M  V30 BEGIN BOND
M  V30 1 2 1 2
M  V30 2 1 2 3
M  V30 3 1 2 4
M  V30 4 1 3 5
M  V30 5 1 4 6
M  V30 6 2 4 7
M  V30 7 1 5 8
M  V30 8 1 6 9
M  V30 9 2 6 10
M  V30 10 1 7 11
M  V30 11 2 8 12
M  V30 12 1 8 13
M  V30 13 1 9 14
M  V30 14 2 9 15
M  V30 15 1 10 16
M  V30 16 1 12 17
M  V30 17 2 13 18
M  V30 18 1 15 19
M  V30 19 2 17 20
M  V30 20 2 11 14
M  V30 21 2 16 19
M  V30 22 1 18 20
M  V30 END BOND
M  V30 END CTAB
M  END
>  <Structure No>
222

>  <Catalog ID>
Z27749745

>  <MW (desalted)>
261.318

>  <ClogP>
4.003

>  <HBD>
1

>  <TPSA>
29.100

>  <RotBonds>
3

>  <Target>
Poly [ADP-ribose] polymerase-1

>  <fromRegid>
CHEMBL594596

>  <Similarity>
0.92

$$$$
Compound 223
Actelion Java MolfileCreator 2.0

  0  0  0  0  0  0              0 V3000
M  V30 BEGIN CTAB
M  V30 COUNTS 19 21 0 0 0
M  V30 BEGIN ATOM
M  V30 1 O 0.0 0.0 0.0 0
M  V30 2 C 1.2879 -0.7443 0.0 0
M  V30 3 N 1.276 -2.2331 0.0 0
M  V30 4 N 2.5758 0.0236 0.0 0
M  V30 5 C 2.564 -2.9775 0.0 0
M  V30 6 C -0.0354 -2.9775 0.0 0
M  V30 7 C 3.8637 -0.7207 0.0 0
M  V30 8 O 2.5521 -4.4663 0.0 0
M  V30 9 C 3.8519 -2.2095 0.0 0
M  V30 10 C -1.3469 -2.2095 0.0 0
M  V30 11 C 5.1516 0.0472 0.0 0
M  V30 12 C 5.1398 -2.9539 0.0 0
M  V30 13 C -2.6585 -2.9539 0.0 0
M  V30 14 C -1.3588 -0.6971 0.0 0
M  V30 15 C 6.4395 -0.6971 0.0 0
M  V30 16 C 6.4277 -2.1859 0.0 0
M  V30 17 C -3.97 -2.1859 0.0 0
M  V30 18 C -2.6703 0.0708 0.0 0
M  V30 19 C -3.9819 -0.6734 0.0 0
M  V30 END ATOM
M  V30 BEGIN BOND
M  V30 1 2 1 2
M  V30 2 1 2 3
M  V30 3 1 2 4
M  V30 4 1 3 5
M  V30 5 1 3 6
M  V30 6 1 4 7
M  V30 7 2 5 8
M  V30 8 1 5 9
M  V30 9 1 6 10
M  V30 10 1 7 11
M  V30 11 1 9 12
M  V30 12 2 10 13
M  V30 13 1 10 14
M  V30 14 2 11 15
M  V30 15 2 12 16
M  V30 16 1 13 17
M  V30 17 2 14 18
M  V30 18 2 17 19
M  V30 19 2 7 9
M  V30 20 1 15 16
M  V30 21 1 18 19
M  V30 END BOND
M  V30 END CTAB
M  END
>  <Structure No>
223

>  <Catalog ID>
Z278334116

>  <MW (desalted)>
252.268

>  <ClogP>
3.152

>  <HBD>
1

>  <TPSA>
49.410

>  <RotBonds>
2

>  <Target>
Poly [ADP-ribose] polymerase-1

>  <fromRegid>
CHEMBL421646

>  <Similarity>
0.85

$$$$
Compound 224
Actelion Java MolfileCreator 2.0

  0  0  0  0  0  0              0 V3000
M  V30 BEGIN CTAB
M  V30 COUNTS 17 18 0 0 0
M  V30 BEGIN ATOM
M  V30 1 O 0.0 0.0 0.0 0
M  V30 2 C 1.2858 -0.7431 0.0 0
M  V30 3 N 2.5716 0.0117 0.0 0
M  V30 4 C 1.274 -2.2295 0.0 0
M  V30 5 C -0.0353 -2.9727 0.0 0
M  V30 6 C 2.5598 -2.9727 0.0 0
M  V30 7 O -1.3448 -2.2059 0.0 0
M  V30 8 C -0.0471 -4.459 0.0 0
M  V30 9 C 2.548 -4.459 0.0 0
M  V30 10 C -2.6542 -2.9491 0.0 0
M  V30 11 C 1.2386 -5.1904 0.0 0
M  V30 12 C -3.9636 -2.1823 0.0 0
M  V30 13 C -5.273 -2.9255 0.0 0
M  V30 14 C -3.9754 -0.6724 0.0 0
M  V30 15 C -6.5824 -2.1587 0.0 0
M  V30 16 C -5.2848 0.0825 0.0 0
M  V30 17 C -6.5942 -0.6488 0.0 0
M  V30 END ATOM
M  V30 BEGIN BOND
M  V30 1 2 1 2
M  V30 2 1 2 3
M  V30 3 1 2 4
M  V30 4 2 4 5
M  V30 5 1 4 6
M  V30 6 1 5 7
M  V30 7 1 5 8
M  V30 8 2 6 9
M  V30 9 1 7 10
M  V30 10 2 8 11
M  V30 11 1 10 12
M  V30 12 2 12 13
M  V30 13 1 12 14
M  V30 14 1 13 15
M  V30 15 2 14 16
M  V30 16 2 15 17
M  V30 17 1 9 11
M  V30 18 1 16 17
M  V30 END BOND
M  V30 END CTAB
M  END
>  <Structure No>
224

>  <Catalog ID>
Z25777178

>  <MW (desalted)>
227.259

>  <ClogP>
2.534

>  <HBD>
1

>  <TPSA>
52.320

>  <RotBonds>
4

>  <Target>
Poly [ADP-ribose] polymerase-1

>  <fromRegid>
CHEMBL3105429

>  <Similarity>
0.96

$$$$
Compound 225
Actelion Java MolfileCreator 2.0

  0  0  0  0  0  0              0 V3000
M  V30 BEGIN CTAB
M  V30 COUNTS 20 22 0 0 0
M  V30 BEGIN ATOM
M  V30 1 O 0.0 0.0 0.0 0
M  V30 2 C 1.2921 -0.7468 0.0 0
M  V30 3 N 1.2803 -2.2405 0.0 0
M  V30 4 C 2.5843 0.0118 0.0 0
M  V30 5 C -0.0355 -2.9873 0.0 0
M  V30 6 C 3.8764 -0.7349 0.0 0
M  V30 7 C 2.5724 1.5292 0.0 0
M  V30 8 C -0.0474 -4.481 0.0 0
M  V30 9 C 5.1686 0.0237 0.0 0
M  V30 10 C 3.8646 2.2879 0.0 0
M  V30 11 C 1.2447 -5.216 0.0 0
M  V30 12 C -1.3632 -5.216 0.0 0
M  V30 13 C 5.1567 1.5411 0.0 0
M  V30 14 C 6.4607 -0.7231 0.0 0
M  V30 15 C 1.2328 -6.7097 0.0 0
M  V30 16 C -1.3751 -6.7097 0.0 0
M  V30 17 C 6.4489 2.2998 0.0 0
M  V30 18 C 7.7529 0.0355 0.0 0
M  V30 19 C -0.0829 -7.4565 0.0 0
M  V30 20 C 7.741 1.5648 0.0 0
M  V30 END ATOM
M  V30 BEGIN BOND
M  V30 1 2 1 2
M  V30 2 1 2 3
M  V30 3 1 2 4
M  V30 4 1 3 5
M  V30 5 2 4 6
M  V30 6 1 4 7
M  V30 7 1 5 8
M  V30 8 1 6 9
M  V30 9 2 7 10
M  V30 10 2 8 11
M  V30 11 1 8 12
M  V30 12 1 9 13
M  V30 13 2 9 14
M  V30 14 1 11 15
M  V30 15 2 12 16
M  V30 16 2 13 17
M  V30 17 1 14 18
M  V30 18 2 15 19
M  V30 19 1 17 20
M  V30 20 1 10 13
M  V30 21 1 16 19
M  V30 22 2 18 20
M  V30 END BOND
M  V30 END CTAB
M  END
>  <Structure No>
225

>  <Catalog ID>
Z27749593

>  <MW (desalted)>
261.318

>  <ClogP>
4.003

>  <HBD>
1

>  <TPSA>
29.100

>  <RotBonds>
3

>  <Target>
Poly [ADP-ribose] polymerase-1

>  <fromRegid>
CHEMBL594596

>  <Similarity>
0.87

$$$$
Compound 226
Actelion Java MolfileCreator 2.0

  0  0  0  0  0  0              0 V3000
M  V30 BEGIN CTAB
M  V30 COUNTS 21 23 0 0 0
M  V30 BEGIN ATOM
M  V30 1 O 0.0 0.0 0.0 0
M  V30 2 C -1.311 -0.7323 0.0 0
M  V30 3 N -2.6221 0.0236 0.0 0
M  V30 4 C -1.3229 -2.2205 0.0 0
M  V30 5 C -2.634 1.5355 0.0 0
M  V30 6 N -2.5513 -3.0946 0.0 0
M  V30 7 C -0.1181 -3.0946 0.0 0
M  V30 8 C -3.9451 2.2914 0.0 0
M  V30 9 N -2.1024 -4.512 0.0 0
M  V30 10 C -0.5905 -4.512 0.0 0
M  V30 11 C -5.2561 1.5591 0.0 0
M  V30 12 C -3.9569 3.8033 0.0 0
M  V30 13 C 0.2834 -5.7168 0.0 0
M  V30 14 C -6.5672 2.315 0.0 0
M  V30 15 C -5.268 4.5593 0.0 0
M  V30 16 C 1.7599 -5.5514 0.0 0
M  V30 17 C -0.3425 -7.0751 0.0 0
M  V30 18 C -6.5791 3.8269 0.0 0
M  V30 19 C 2.634 -6.7562 0.0 0
M  V30 20 C 0.5315 -8.2799 0.0 0
M  V30 21 C 2.0079 -8.1146 0.0 0
M  V30 END ATOM
M  V30 BEGIN BOND
M  V30 1 2 1 2
M  V30 2 1 2 3
M  V30 3 1 2 4
M  V30 4 1 3 5
M  V30 5 1 4 6
M  V30 6 2 4 7
M  V30 7 1 5 8
M  V30 8 1 6 9
M  V30 9 1 7 10
M  V30 10 2 8 11
M  V30 11 1 8 12
M  V30 12 1 10 13
M  V30 13 1 11 14
M  V30 14 2 12 15
M  V30 15 2 13 16
M  V30 16 1 13 17
M  V30 17 2 14 18
M  V30 18 1 16 19
M  V30 19 2 17 20
M  V30 20 2 19 21
M  V30 21 2 9 10
M  V30 22 1 15 18
M  V30 23 1 20 21
M  V30 END BOND
M  V30 END CTAB
M  END
>  <Structure No>
226

>  <Catalog ID>
Z62434158

>  <MW (desalted)>
277.321

>  <ClogP>
4.234

>  <HBD>
2

>  <TPSA>
57.780

>  <RotBonds>
4

>  <Target>
Serine/threonine-protein kinase Chk1

>  <fromRegid>
CHEMBL1995916

>  <Similarity>
0.92

$$$$
Compound 227
Actelion Java MolfileCreator 2.0

  0  0  0  0  0  0              0 V3000
M  V30 BEGIN CTAB
M  V30 COUNTS 20 22 0 0 0
M  V30 BEGIN ATOM
M  V30 1 S 0.0 0.0 0.0 0
M  V30 2 C -1.4456 -0.4502 0.0 0
M  V30 3 C 0.8768 -1.2086 0.0 0
M  V30 4 N -2.8913 0.0236 0.0 0
M  V30 5 C -1.4575 -1.9433 0.0 0
M  V30 6 C 2.3699 -1.1968 0.0 0
M  V30 7 C -0.0236 -2.4173 0.0 0
M  V30 8 N -3.7919 -1.1849 0.0 0
M  V30 9 C -3.3653 1.4693 0.0 0
M  V30 10 C -2.9032 -2.3936 0.0 0
M  V30 11 O 3.1046 0.1184 0.0 0
M  V30 12 N 3.1046 -2.4884 0.0 0
M  V30 13 C -3.3771 -3.8156 0.0 0
M  V30 14 C 4.5977 -2.4766 0.0 0
M  V30 15 C 5.3324 -3.7682 0.0 0
M  V30 16 C 6.8254 -3.7563 0.0 0
M  V30 17 C 4.574 -5.0598 0.0 0
M  V30 18 C 7.5601 -5.048 0.0 0
M  V30 19 C 5.3087 -6.3514 0.0 0
M  V30 20 C 6.8017 -6.3396 0.0 0
M  V30 END ATOM
M  V30 BEGIN BOND
M  V30 1 1 1 2
M  V30 2 1 1 3
M  V30 3 1 2 4
M  V30 4 2 2 5
M  V30 5 1 3 6
M  V30 6 2 3 7
M  V30 7 1 4 8
M  V30 8 1 4 9
M  V30 9 1 5 10
M  V30 10 2 6 11
M  V30 11 1 6 12
M  V30 12 1 10 13
M  V30 13 1 12 14
M  V30 14 1 14 15
M  V30 15 2 15 16
M  V30 16 1 15 17
M  V30 17 1 16 18
M  V30 18 2 17 19
M  V30 19 2 18 20
M  V30 20 1 5 7
M  V30 21 2 8 10
M  V30 22 1 19 20
M  V30 END BOND
M  V30 END CTAB
M  END
>  <Structure No>
227

>  <Catalog ID>
Z220581054

>  <MW (desalted)>
285.364

>  <ClogP>
2.822

>  <HBD>
1

>  <TPSA>
46.920

>  <RotBonds>
3

>  <Target>
Serine/threonine-protein kinase Chk1

>  <fromRegid>
CHEMBL1986588

>  <Similarity>
0.87

$$$$
Compound 228
Actelion Java MolfileCreator 2.0

  0  0  0  0  0  0              0 V3000
M  V30 BEGIN CTAB
M  V30 COUNTS 21 23 0 0 0
M  V30 BEGIN ATOM
M  V30 1 O 0.0 0.0 0.0 0
M  V30 2 C -0.0117 1.5077 0.0 0
M  V30 3 N -1.3193 2.2734 0.0 0
M  V30 4 C 1.2722 2.2734 0.0 0
M  V30 5 C -1.3311 3.7812 0.0 0
M  V30 6 C 1.2604 3.7812 0.0 0
M  V30 7 C 2.5561 1.5313 0.0 0
M  V30 8 C -2.6386 4.5351 0.0 0
M  V30 9 C -0.0471 4.5351 0.0 0
M  V30 10 C 2.5444 4.5351 0.0 0
M  V30 11 C 3.8401 2.297 0.0 0
M  V30 12 O -2.6504 6.0429 0.0 0
M  V30 13 N -3.9461 3.8048 0.0 0
M  V30 14 C 3.8283 3.8048 0.0 0
M  V30 15 C -5.2537 4.5587 0.0 0
M  V30 16 C -6.5612 3.8283 0.0 0
M  V30 17 C -6.573 2.3441 0.0 0
M  V30 18 C -7.8688 4.5822 0.0 0
M  V30 19 C -7.8805 1.602 0.0 0
M  V30 20 C -9.1763 3.8519 0.0 0
M  V30 21 C -9.1881 2.3677 0.0 0
M  V30 END ATOM
M  V30 BEGIN BOND
M  V30 1 2 1 2
M  V30 2 1 2 3
M  V30 3 1 2 4
M  V30 4 1 3 5
M  V30 5 2 4 6
M  V30 6 1 4 7
M  V30 7 1 5 8
M  V30 8 2 5 9
M  V30 9 1 6 10
M  V30 10 2 7 11
M  V30 11 2 8 12
M  V30 12 1 8 13
M  V30 13 2 10 14
M  V30 14 1 13 15
M  V30 15 1 15 16
M  V30 16 2 16 17
M  V30 17 1 16 18
M  V30 18 1 17 19
M  V30 19 2 18 20
M  V30 20 2 19 21
M  V30 21 1 6 9
M  V30 22 1 11 14
M  V30 23 1 20 21
M  V30 END BOND
M  V30 END CTAB
M  END
>  <Structure No>
228

>  <Catalog ID>
Z79407714

>  <MW (desalted)>
278.305

>  <ClogP>
2.083

>  <HBD>
2

>  <TPSA>
58.200

>  <RotBonds>
3

>  <Target>
Tankyrase1

>  <fromRegid>


>  <Similarity>


$$$$
Compound 229
Actelion Java MolfileCreator 2.0

  0  0  0  0  0  0              0 V3000
M  V30 BEGIN CTAB
M  V30 COUNTS 20 21 0 0 0
M  V30 BEGIN ATOM
M  V30 1 Cl 0.0 0.0 0.0 0
M  V30 2 O 8.2565 3.7961 0.0 0
M  V30 3 C 8.7073 2.3725 0.0 0
M  V30 4 N 7.8057 1.1625 0.0 0
M  V30 5 C 10.1308 1.9217 0.0 0
M  V30 6 C 8.6836 -0.0474 0.0 0 CFG=2
M  V30 7 C 6.2873 1.1744 0.0 0
M  V30 8 C 10.119 0.427 0.0 0
M  V30 9 C 11.4239 2.681 0.0 0
M  V30 10 C 8.209 -1.4709 0.0 0
M  V30 11 C 5.5162 -0.1186 0.0 0
M  V30 12 C 11.412 -0.3084 0.0 0
M  V30 13 C 12.7169 1.9455 0.0 0
M  V30 14 N 9.2055 -2.5742 0.0 0
M  V30 15 C 6.2635 -1.4116 0.0 0
M  V30 16 C 3.9977 -0.1067 0.0 0
M  V30 17 C 12.7051 0.4507 0.0 0
M  V30 18 C 5.4925 -2.7047 0.0 0
M  V30 19 C 3.2385 -1.3998 0.0 0
M  V30 20 C 3.974 -2.6928 0.0 0
M  V30 END ATOM
M  V30 BEGIN BOND
M  V30 1 2 2 3
M  V30 2 1 3 4
M  V30 3 1 3 5
M  V30 4 1 4 6
M  V30 5 1 4 7
M  V30 6 2 5 8
M  V30 7 1 5 9
M  V30 8 1 6 10 CFG=3
M  V30 9 1 7 11
M  V30 10 1 8 12
M  V30 11 2 9 13
M  V30 12 1 10 14
M  V30 13 2 11 15
M  V30 14 1 11 16
M  V30 15 2 12 17
M  V30 16 1 15 18
M  V30 17 2 16 19
M  V30 18 2 18 20
M  V30 19 1 6 8
M  V30 20 1 13 17
M  V30 21 1 19 20
M  V30 END BOND
M  V30 BEGIN COLLECTION
M  V30 MDLV30/STERAC1 ATOMS=(1 6)
M  V30 END COLLECTION
M  V30 END CTAB
M  END
>  <Structure No>
229

>  <Catalog ID>
Z2598479077

>  <MW (desalted)>
252.311

>  <ClogP>
2.137

>  <HBD>
1

>  <TPSA>
46.330

>  <RotBonds>
3

>  <Target>
Poly [ADP-ribose] polymerase-1

>  <fromRegid>
CHEMBL596168

>  <Similarity>
0.86

$$$$
Compound 230
Actelion Java MolfileCreator 2.0

  0  0  0  0  0  0              0 V3000
M  V30 BEGIN CTAB
M  V30 COUNTS 18 20 0 0 0
M  V30 BEGIN ATOM
M  V30 1 N 0.0 0.0 0.0 0
M  V30 2 N -1.3102 0.7672 0.0 0
M  V30 3 C 1.2866 0.7672 0.0 0
M  V30 4 C -1.322 2.2781 0.0 0
M  V30 5 C -2.7503 0.3187 0.0 0
M  V30 6 N 2.5732 0.0236 0.0 0
M  V30 7 C 1.2748 2.2781 0.0 0
M  V30 8 N -2.7621 2.7503 0.0 0
M  V30 9 C -0.0354 3.0454 0.0 0
M  V30 10 N -3.6474 1.5463 0.0 0
M  V30 11 C -3.2225 -1.0977 0.0 0
M  V30 12 C 3.8599 0.7908 0.0 0
M  V30 13 C 5.1465 0.0472 0.0 0
M  V30 14 C 6.4332 0.8144 0.0 0
M  V30 15 C 5.1347 -1.44 0.0 0
M  V30 16 C 7.7198 0.0708 0.0 0
M  V30 17 C 6.4214 -2.1837 0.0 0
M  V30 18 C 7.708 -1.4164 0.0 0
M  V30 END ATOM
M  V30 BEGIN BOND
M  V30 1 1 1 2
M  V30 2 2 1 3
M  V30 3 1 2 4
M  V30 4 1 2 5
M  V30 5 1 3 6
M  V30 6 1 3 7
M  V30 7 2 4 8
M  V30 8 1 4 9
M  V30 9 2 5 10
M  V30 10 1 5 11
M  V30 11 1 6 12
M  V30 12 1 12 13
M  V30 13 2 13 14
M  V30 14 1 13 15
M  V30 15 1 14 16
M  V30 16 2 15 17
M  V30 17 2 16 18
M  V30 18 2 7 9
M  V30 19 1 8 10
M  V30 20 1 17 18
M  V30 END BOND
M  V30 END CTAB
M  END
>  <Structure No>
230

>  <Catalog ID>
Z57085294

>  <MW (desalted)>
239.276

>  <ClogP>
1.579

>  <HBD>
1

>  <TPSA>
55.110

>  <RotBonds>
3

>  <Target>
Serine/threonine-protein kinase Chk1

>  <fromRegid>
CHEMBL1375418

>  <Similarity>
0.89

$$$$
Compound 231
Actelion Java MolfileCreator 2.0

  0  0  0  0  0  0              0 V3000
M  V30 BEGIN CTAB
M  V30 COUNTS 23 25 0 0 0
M  V30 BEGIN ATOM
M  V30 1 S 0.0 0.0 0.0 0
M  V30 2 C -1.3125 -0.7449 0.0 0
M  V30 3 C 1.2888 -0.7449 0.0 0
M  V30 4 N -1.3243 -2.2348 0.0 0
M  V30 5 N -2.625 0.0236 0.0 0
M  V30 6 C 2.5777 0.0236 0.0 0
M  V30 7 C -2.6368 -2.9679 0.0 0
M  V30 8 C -3.9376 -0.7213 0.0 0
M  V30 9 O 2.5659 1.5372 0.0 0
M  V30 10 N 3.8666 -0.7213 0.0 0
M  V30 11 C -3.9494 -2.2112 0.0 0
M  V30 12 C -2.6487 -4.4578 0.0 0
M  V30 13 O -5.2501 0.0472 0.0 0
M  V30 14 C 5.1555 0.0472 0.0 0
M  V30 15 C -5.2619 -2.9443 0.0 0
M  V30 16 C -3.9612 -5.2028 0.0 0
M  V30 17 C 6.4444 -0.6976 0.0 0
M  V30 18 C -5.2737 -4.4342 0.0 0
M  V30 19 C 7.7333 0.0709 0.0 0
M  V30 20 C 6.4326 -2.1875 0.0 0
M  V30 21 C 9.0221 -0.674 0.0 0
M  V30 22 C 7.7214 -2.9206 0.0 0
M  V30 23 C 9.0103 -2.1639 0.0 0
M  V30 END ATOM
M  V30 BEGIN BOND
M  V30 1 1 1 2
M  V30 2 1 1 3
M  V30 3 2 2 4
M  V30 4 1 2 5
M  V30 5 1 3 6
M  V30 6 1 4 7
M  V30 7 1 5 8
M  V30 8 2 6 9
M  V30 9 1 6 10
M  V30 10 2 7 11
M  V30 11 1 7 12
M  V30 12 2 8 13
M  V30 13 1 10 14
M  V30 14 1 11 15
M  V30 15 2 12 16
M  V30 16 1 14 17
M  V30 17 2 15 18
M  V30 18 2 17 19
M  V30 19 1 17 20
M  V30 20 1 19 21
M  V30 21 2 20 22
M  V30 22 2 21 23
M  V30 23 1 8 11
M  V30 24 1 16 18
M  V30 25 1 22 23
M  V30 END BOND
M  V30 END CTAB
M  END
>  <Structure No>
231

>  <Catalog ID>
Z16079432

>  <MW (desalted)>
325.385

>  <ClogP>
1.916

>  <HBD>
2

>  <TPSA>
70.560

>  <RotBonds>
5

>  <Target>
parp3

>  <fromRegid>


>  <Similarity>


$$$$
Compound 232
Actelion Java MolfileCreator 2.0

  0  0  0  0  0  0              0 V3000
M  V30 BEGIN CTAB
M  V30 COUNTS 17 17 0 0 0
M  V30 BEGIN ATOM
M  V30 1 O 0.0 0.0 0.0 0
M  V30 2 C 1.2866 0.7554 0.0 0
M  V30 3 O 2.5733 0.0118 0.0 0
M  V30 4 C 1.2748 2.2664 0.0 0
M  V30 5 C 2.5615 3.0218 0.0 0
M  V30 6 C -0.0354 3.0218 0.0 0
M  V30 7 N 3.8481 2.29 0.0 0
M  V30 8 C 2.5497 4.5328 0.0 0
M  V30 9 C -0.0472 4.5328 0.0 0
M  V30 10 C 5.1348 3.0454 0.0 0
M  V30 11 C 1.2394 5.2882 0.0 0
M  V30 12 O -1.3574 5.2882 0.0 0
M  V30 13 O 5.123 4.5564 0.0 0
M  V30 14 C 6.4214 2.3136 0.0 0
M  V30 15 O 1.2276 6.7992 0.0 0
M  V30 16 C -2.6677 4.5564 0.0 0
M  V30 17 C 2.5142 7.5547 0.0 0
M  V30 END ATOM
M  V30 BEGIN BOND
M  V30 1 2 1 2
M  V30 2 1 2 3
M  V30 3 1 2 4
M  V30 4 2 4 5
M  V30 5 1 4 6
M  V30 6 1 5 7
M  V30 7 1 5 8
M  V30 8 2 6 9
M  V30 9 1 7 10
M  V30 10 2 8 11
M  V30 11 1 9 12
M  V30 12 2 10 13
M  V30 13 1 10 14
M  V30 14 1 11 15
M  V30 15 1 12 16
M  V30 16 1 15 17
M  V30 17 1 9 11
M  V30 END BOND
M  V30 END CTAB
M  END
>  <Structure No>
232

>  <Catalog ID>
Z56989659

>  <MW (desalted)>
239.225

>  <ClogP>
1.478

>  <HBD>
2

>  <TPSA>
84.860

>  <RotBonds>
4

>  <Target>
Serine/threonine-protein kinase Chk1

>  <fromRegid>
CHEMBL1997495

>  <Similarity>
0.89

$$$$
Compound 233
Actelion Java MolfileCreator 2.0

  0  0  0  0  0  0              0 V3000
M  V30 BEGIN CTAB
M  V30 COUNTS 17 19 0 0 0
M  V30 BEGIN ATOM
M  V30 1 S 0.0 0.0 0.0 0
M  V30 2 C -1.2304 -0.8705 0.0 0
M  V30 3 C 1.2072 -0.8705 0.0 0
M  V30 4 N -2.7162 -0.5455 0.0 0
M  V30 5 C -0.7777 -2.2867 0.0 0
M  V30 6 C 0.7312 -2.2867 0.0 0
M  V30 7 C 2.6698 -0.5455 0.0 0
M  V30 8 C -3.7377 -1.6483 0.0 0
M  V30 9 C -1.7992 -3.3895 0.0 0
M  V30 10 C 1.7295 -3.3895 0.0 0
M  V30 11 C 3.668 -1.6483 0.0 0
M  V30 12 N -3.285 -3.0644 0.0 0
M  V30 13 C -5.2235 -1.3233 0.0 0
M  V30 14 O -1.3465 -4.8056 0.0 0
M  V30 15 C 3.1921 -3.0644 0.0 0
M  V30 16 C -6.245 -2.426 0.0 0
M  V30 17 N -7.2665 -3.5288 0.0 0
M  V30 END ATOM
M  V30 BEGIN BOND
M  V30 1 1 1 2
M  V30 2 1 1 3
M  V30 3 1 2 4
M  V30 4 2 2 5
M  V30 5 2 3 6
M  V30 6 1 3 7
M  V30 7 2 4 8
M  V30 8 1 5 9
M  V30 9 1 6 10
M  V30 10 1 7 11
M  V30 11 1 8 12
M  V30 12 1 8 13
M  V30 13 2 9 14
M  V30 14 1 10 15
M  V30 15 1 13 16
M  V30 16 3 16 17
M  V30 17 1 5 6
M  V30 18 1 9 12
M  V30 19 1 11 15
M  V30 END BOND
M  V30 END CTAB
M  END
>  <Structure No>
233

>  <Catalog ID>
Z56886503

>  <MW (desalted)>
245.300

>  <ClogP>
1.118

>  <HBD>
1

>  <TPSA>
65.250

>  <RotBonds>
1

>  <Target>
Poly [ADP-ribose] polymerase-1

>  <fromRegid>
CHEMBL3616846

>  <Similarity>
0.9

$$$$
Compound 234
Actelion Java MolfileCreator 2.0

  0  0  0  0  0  0              0 V3000
M  V30 BEGIN CTAB
M  V30 COUNTS 17 18 0 0 0
M  V30 BEGIN ATOM
M  V30 1 Cl 0.0 0.0 0.0 0
M  V30 2 C -0.0118 -1.4944 0.0 0
M  V30 3 C 1.2809 -2.2417 0.0 0
M  V30 4 C -1.3284 -2.2417 0.0 0
M  V30 5 C 1.2691 -3.7361 0.0 0
M  V30 6 C -1.3402 -3.7361 0.0 0
M  V30 7 N 2.5619 -4.4834 0.0 0
M  V30 8 C -0.0474 -4.4834 0.0 0
M  V30 9 C 3.8547 -3.7124 0.0 0
M  V30 10 O 3.8429 -2.1942 0.0 0
M  V30 11 C 5.1476 -4.4596 0.0 0
M  V30 12 C 6.4404 -3.6887 0.0 0
M  V30 13 C 5.1357 -5.9541 0.0 0
M  V30 14 N 6.4285 -2.1705 0.0 0
M  V30 15 C 7.7332 -4.4359 0.0 0
M  V30 16 C 6.4285 -6.6895 0.0 0
M  V30 17 C 7.7214 -5.9304 0.0 0
M  V30 END ATOM
M  V30 BEGIN BOND
M  V30 1 1 1 2
M  V30 2 2 2 3
M  V30 3 1 2 4
M  V30 4 1 3 5
M  V30 5 2 4 6
M  V30 6 1 5 7
M  V30 7 2 5 8
M  V30 8 1 7 9
M  V30 9 2 9 10
M  V30 10 1 9 11
M  V30 11 2 11 12
M  V30 12 1 11 13
M  V30 13 1 12 14
M  V30 14 1 12 15
M  V30 15 2 13 16
M  V30 16 2 15 17
M  V30 17 1 6 8
M  V30 18 1 16 17
M  V30 END BOND
M  V30 END CTAB
M  END
>  <Structure No>
234

>  <Catalog ID>
Z56040697

>  <MW (desalted)>
246.692

>  <ClogP>
3.314

>  <HBD>
2

>  <TPSA>
55.120

>  <RotBonds>
2

>  <Target>
Serine/threonine-protein kinase Chk1

>  <fromRegid>
CHEMBL396034

>  <Similarity>
0.86

$$$$
Compound 235
Actelion Java MolfileCreator 2.0

  0  0  0  0  0  0              0 V3000
M  V30 BEGIN CTAB
M  V30 COUNTS 17 18 0 0 0
M  V30 BEGIN ATOM
M  V30 1 Cl 0.0 0.0 0.0 0
M  V30 2 C -0.0117 -1.4866 0.0 0
M  V30 3 C -1.3214 -2.23 0.0 0
M  V30 4 C 1.2742 -2.23 0.0 0
M  V30 5 N -2.6311 -1.463 0.0 0
M  V30 6 C -1.3332 -3.7167 0.0 0
M  V30 7 C 1.2625 -3.7167 0.0 0
M  V30 8 C -2.6429 0.0471 0.0 0
M  V30 9 C -0.0471 -4.4482 0.0 0
M  V30 10 O -1.3568 0.8023 0.0 0
M  V30 11 C -3.9526 0.8023 0.0 0
M  V30 12 N -3.9644 2.3126 0.0 0
M  V30 13 C -5.2741 3.0677 0.0 0
M  V30 14 C -2.6783 3.0677 0.0 0
M  V30 15 C -5.2859 4.578 0.0 0
M  V30 16 C -2.6901 4.578 0.0 0
M  V30 17 N -3.9998 5.3331 0.0 0
M  V30 END ATOM
M  V30 BEGIN BOND
M  V30 1 1 1 2
M  V30 2 2 2 3
M  V30 3 1 2 4
M  V30 4 1 3 5
M  V30 5 1 3 6
M  V30 6 2 4 7
M  V30 7 1 5 8
M  V30 8 2 6 9
M  V30 9 2 8 10
M  V30 10 1 8 11
M  V30 11 1 11 12
M  V30 12 1 12 13
M  V30 13 1 12 14
M  V30 14 1 13 15
M  V30 15 1 14 16
M  V30 16 1 15 17
M  V30 17 1 7 9
M  V30 18 1 16 17
M  V30 END BOND
M  V30 END CTAB
M  END
>  <Structure No>
235

>  <Catalog ID>
Z85920180

>  <MW (desalted)>
253.728

>  <ClogP>
1.008

>  <HBD>
2

>  <TPSA>
44.370

>  <RotBonds>
3

>  <Target>
ATM

>  <fromRegid>


>  <Similarity>


$$$$
Compound 236
Actelion Java MolfileCreator 2.0

  0  0  0  0  0  0              0 V3000
M  V30 BEGIN CTAB
M  V30 COUNTS 17 18 0 0 0
M  V30 BEGIN ATOM
M  V30 1 O 0.0 0.0 0.0 0
M  V30 2 C -1.3098 -0.7434 0.0 0
M  V30 3 N -1.3216 -2.2302 0.0 0
M  V30 4 N -2.6196 0.0236 0.0 0
M  V30 5 C -2.6314 -2.9736 0.0 0
M  V30 6 C -0.0354 -2.9736 0.0 0
M  V30 7 C -3.9295 -0.7198 0.0 0
M  V30 8 C -2.6314 1.534 0.0 0
M  V30 9 O -2.6432 -4.4605 0.0 0
M  V30 10 C -3.9413 -2.2066 0.0 0
M  V30 11 C -0.0472 -4.4605 0.0 0
M  V30 12 N -5.3691 -0.2478 0.0 0
M  V30 13 N -5.3809 -2.655 0.0 0
M  V30 14 O 1.239 -5.2039 0.0 0
M  V30 15 O -1.357 -5.2039 0.0 0
M  V30 16 C -6.2659 -1.4514 0.0 0
M  V30 17 C -5.8529 -4.0711 0.0 0
M  V30 END ATOM
M  V30 BEGIN BOND
M  V30 1 2 1 2
M  V30 2 1 2 3
M  V30 3 1 2 4
M  V30 4 1 3 5
M  V30 5 1 3 6
M  V30 6 1 4 7
M  V30 7 1 4 8
M  V30 8 2 5 9
M  V30 9 1 5 10
M  V30 10 1 6 11
M  V30 11 1 7 12
M  V30 12 1 10 13
M  V30 13 2 11 14
M  V30 14 1 11 15
M  V30 15 2 12 16
M  V30 16 1 13 17
M  V30 17 2 7 10
M  V30 18 1 13 16
M  V30 END BOND
M  V30 END CTAB
M  END
>  <Structure No>
236

>  <Catalog ID>
Z90662175

>  <MW (desalted)>
238.200

>  <ClogP>
0.052

>  <HBD>
1

>  <TPSA>
95.740

>  <RotBonds>
2

>  <Target>
Serine-protein kinase ATM

>  <fromRegid>
CHEMBL113

>  <Similarity>
0.89

$$$$
Compound 237
Actelion Java MolfileCreator 2.0

  0  0  0  0  0  0              0 V3000
M  V30 BEGIN CTAB
M  V30 COUNTS 17 18 0 0 0
M  V30 BEGIN ATOM
M  V30 1 O 0.0 0.0 0.0 0
M  V30 2 C -0.0117 1.5079 0.0 0
M  V30 3 N -1.3194 2.2737 0.0 0
M  V30 4 C 1.2723 2.2737 0.0 0
M  V30 5 C -1.3312 3.7816 0.0 0
M  V30 6 C 1.2605 3.7816 0.0 0
M  V30 7 C 2.5564 1.5315 0.0 0
M  V30 8 N -0.0471 4.5356 0.0 0
M  V30 9 C -2.6389 4.5356 0.0 0
M  V30 10 C 2.5446 4.5356 0.0 0
M  V30 11 C 3.8405 2.2972 0.0 0
M  V30 12 C -3.9466 3.7934 0.0 0
M  V30 13 C 3.8287 3.7934 0.0 0
M  V30 14 C -5.2542 4.5474 0.0 0
M  V30 15 C -6.5619 3.8052 0.0 0
M  V30 16 O -6.5737 2.3208 0.0 0
M  V30 17 O -7.8696 4.5592 0.0 0
M  V30 END ATOM
M  V30 BEGIN BOND
M  V30 1 2 1 2
M  V30 2 1 2 3
M  V30 3 1 2 4
M  V30 4 1 3 5
M  V30 5 2 4 6
M  V30 6 1 4 7
M  V30 7 2 5 8
M  V30 8 1 5 9
M  V30 9 1 6 10
M  V30 10 2 7 11
M  V30 11 1 9 12
M  V30 12 2 10 13
M  V30 13 1 12 14
M  V30 14 1 14 15
M  V30 15 2 15 16
M  V30 16 1 15 17
M  V30 17 1 6 8
M  V30 18 1 11 13
M  V30 END BOND
M  V30 END CTAB
M  END
>  <Structure No>
237

>  <Catalog ID>
Z56983044

>  <MW (desalted)>
232.235

>  <ClogP>
0.445

>  <HBD>
2

>  <TPSA>
78.760

>  <RotBonds>
4

>  <Target>
Poly [ADP-ribose] polymerase-1

>  <fromRegid>
CHEMBL2377256

>  <Similarity>
0.88

$$$$
Compound 238
Actelion Java MolfileCreator 2.0

  0  0  0  0  0  0              0 V3000
M  V30 BEGIN CTAB
M  V30 COUNTS 17 19 0 0 0
M  V30 BEGIN ATOM
M  V30 1 O 0.0 0.0 0.0 0
M  V30 2 C -0.0117 1.5065 0.0 0
M  V30 3 N -1.3182 2.2716 0.0 0
M  V30 4 C 1.2711 2.2716 0.0 0
M  V30 5 C -1.33 3.7782 0.0 0
M  V30 6 C 1.2594 3.7782 0.0 0
M  V30 7 C 2.5541 1.5301 0.0 0
M  V30 8 N -0.047 4.5315 0.0 0
M  V30 9 C -2.6365 4.5315 0.0 0
M  V30 10 C 2.5423 4.5315 0.0 0
M  V30 11 C 3.837 2.2951 0.0 0
M  V30 12 C -3.943 3.8017 0.0 0
M  V30 13 C -2.6482 6.0381 0.0 0
M  V30 14 C 3.8253 3.8017 0.0 0
M  V30 15 C -5.2495 4.555 0.0 0
M  V30 16 C -3.9547 6.7914 0.0 0
M  V30 17 C -5.2612 6.0616 0.0 0
M  V30 END ATOM
M  V30 BEGIN BOND
M  V30 1 2 1 2
M  V30 2 1 2 3
M  V30 3 1 2 4
M  V30 4 1 3 5
M  V30 5 2 4 6
M  V30 6 1 4 7
M  V30 7 2 5 8
M  V30 8 1 5 9
M  V30 9 1 6 10
M  V30 10 2 7 11
M  V30 11 2 9 12
M  V30 12 1 9 13
M  V30 13 2 10 14
M  V30 14 1 12 15
M  V30 15 2 13 16
M  V30 16 2 15 17
M  V30 17 1 6 8
M  V30 18 1 11 14
M  V30 19 1 16 17
M  V30 END BOND
M  V30 END CTAB
M  END
>  <Structure No>
238

>  <Catalog ID>
Z57042021

>  <MW (desalted)>
222.242

>  <ClogP>
2.403

>  <HBD>
1

>  <TPSA>
41.460

>  <RotBonds>
1

>  <Target>
Poly [ADP-ribose] polymerase-1

>  <fromRegid>
CHEMBL395092

>  <Similarity>
0.88

$$$$
Compound 239
Actelion Java MolfileCreator 2.0

  0  0  0  0  0  0              0 V3000
M  V30 BEGIN CTAB
M  V30 COUNTS 17 18 0 0 0
M  V30 BEGIN ATOM
M  V30 1 O 0.0 0.0 0.0 0
M  V30 2 C -1.3054 0.7526 0.0 0
M  V30 3 N -1.3172 2.258 0.0 0
M  V30 4 N -2.6108 0.0235 0.0 0
M  V30 5 C -2.6226 3.0107 0.0 0
M  V30 6 C -0.0352 3.0107 0.0 0
M  V30 7 C -3.9163 0.7762 0.0 0
M  V30 8 C -2.6226 -1.4583 0.0 0
M  V30 9 O -2.6344 4.5161 0.0 0
M  V30 10 C -3.928 2.2815 0.0 0
M  V30 11 N -5.3511 0.3293 0.0 0
M  V30 12 N -5.3628 2.752 0.0 0
M  V30 13 C -6.2449 1.5524 0.0 0
M  V30 14 C -5.8333 4.1868 0.0 0
M  V30 15 C -4.8454 5.304 0.0 0
M  V30 16 O -5.3158 6.7388 0.0 0
M  V30 17 O -3.3988 5.01 0.0 0
M  V30 END ATOM
M  V30 BEGIN BOND
M  V30 1 2 1 2
M  V30 2 1 2 3
M  V30 3 1 2 4
M  V30 4 1 3 5
M  V30 5 1 3 6
M  V30 6 1 4 7
M  V30 7 1 4 8
M  V30 8 2 5 9
M  V30 9 1 5 10
M  V30 10 1 7 11
M  V30 11 1 10 12
M  V30 12 2 11 13
M  V30 13 1 12 14
M  V30 14 1 14 15
M  V30 15 2 15 16
M  V30 16 1 15 17
M  V30 17 2 7 10
M  V30 18 1 12 13
M  V30 END BOND
M  V30 END CTAB
M  END
>  <Structure No>
239

>  <Catalog ID>
Z104477882

>  <MW (desalted)>
238.200

>  <ClogP>
-0.658

>  <HBD>
1

>  <TPSA>
95.740

>  <RotBonds>
2

>  <Target>
Serine-protein kinase ATM

>  <fromRegid>
CHEMBL113

>  <Similarity>
0.87

$$$$
Compound 240
Actelion Java MolfileCreator 2.0

  0  0  0  0  0  0              0 V3000
M  V30 BEGIN CTAB
M  V30 COUNTS 17 18 0 0 0
M  V30 BEGIN ATOM
M  V30 1 O 0.0 0.0 0.0 0
M  V30 2 C 1.2916 0.7583 0.0 0
M  V30 3 N 2.5832 0.0118 0.0 0
M  V30 4 N 1.2797 2.2751 0.0 0
M  V30 5 C 3.8748 0.7702 0.0 0
M  V30 6 C 2.5713 -1.4812 0.0 0
M  V30 7 C 2.5713 3.0335 0.0 0
M  V30 8 C 3.8629 2.2869 0.0 0
M  V30 9 C 5.1664 0.0236 0.0 0
M  V30 10 C 3.8629 -2.2277 0.0 0
M  V30 11 O 2.5595 4.5502 0.0 0
M  V30 12 C 5.1545 3.0453 0.0 0
M  V30 13 C 6.458 0.782 0.0 0
M  V30 14 C 3.8511 -3.7207 0.0 0
M  V30 15 C 6.4461 2.3106 0.0 0
M  V30 16 O 2.5358 -4.4554 0.0 0
M  V30 17 O 5.1427 -4.4554 0.0 0
M  V30 END ATOM
M  V30 BEGIN BOND
M  V30 1 2 1 2
M  V30 2 1 2 3
M  V30 3 1 2 4
M  V30 4 1 3 5
M  V30 5 1 3 6
M  V30 6 1 4 7
M  V30 7 2 5 8
M  V30 8 1 5 9
M  V30 9 1 6 10
M  V30 10 2 7 11
M  V30 11 1 8 12
M  V30 12 2 9 13
M  V30 13 1 10 14
M  V30 14 2 12 15
M  V30 15 2 14 16
M  V30 16 1 14 17
M  V30 17 1 7 8
M  V30 18 1 13 15
M  V30 END BOND
M  V30 END CTAB
M  END
>  <Structure No>
240

>  <Catalog ID>
Z166653136

>  <MW (desalted)>
234.208

>  <ClogP>
0.394

>  <HBD>
2

>  <TPSA>
86.710

>  <RotBonds>
3

>  <Target>
Poly [ADP-ribose] polymerase-1

>  <fromRegid>
CHEMBL3105416

>  <Similarity>
0.88

$$$$
Compound 241
Actelion Java MolfileCreator 2.0

  0  0  0  0  0  0              0 V3000
M  V30 BEGIN CTAB
M  V30 COUNTS 17 18 0 0 0
M  V30 BEGIN ATOM
M  V30 1 O 0.0 0.0 0.0 0
M  V30 2 C 1.2853 -0.7429 0.0 0
M  V30 3 N 2.5707 0.0235 0.0 0
M  V30 4 N 1.2735 -2.2287 0.0 0
M  V30 5 C 2.5589 1.533 0.0 0
M  V30 6 C -0.0353 -2.9599 0.0 0
M  V30 7 C 3.8443 2.2877 0.0 0
M  V30 8 C 1.25 2.2877 0.0 0
M  V30 9 C -0.0471 -4.4458 0.0 0
M  V30 10 C -1.3443 -2.2052 0.0 0
M  V30 11 C 3.8325 3.7972 0.0 0
M  V30 12 C 1.2382 3.7972 0.0 0
M  V30 13 C -1.3561 -5.1769 0.0 0
M  V30 14 C -2.6533 -2.9363 0.0 0
M  V30 15 C 2.5236 4.5519 0.0 0
M  V30 16 C -2.6651 -4.4222 0.0 0
M  V30 17 N 2.5118 6.0613 0.0 0
M  V30 END ATOM
M  V30 BEGIN BOND
M  V30 1 2 1 2
M  V30 2 1 2 3
M  V30 3 1 2 4
M  V30 4 1 3 5
M  V30 5 1 4 6
M  V30 6 2 5 7
M  V30 7 1 5 8
M  V30 8 2 6 9
M  V30 9 1 6 10
M  V30 10 1 7 11
M  V30 11 2 8 12
M  V30 12 1 9 13
M  V30 13 2 10 14
M  V30 14 2 11 15
M  V30 15 2 13 16
M  V30 16 1 15 17
M  V30 17 1 12 15
M  V30 18 1 14 16
M  V30 END BOND
M  V30 END CTAB
M  END
>  <Structure No>
241

>  <Catalog ID>
Z234854052

>  <MW (desalted)>
227.262

>  <ClogP>
1.783

>  <HBD>
3

>  <TPSA>
67.150

>  <RotBonds>
2

>  <Target>
Serine/threonine-protein kinase Chk1

>  <fromRegid>
CHEMBL354676

>  <Similarity>
0.94

$$$$
Compound 242
Actelion Java MolfileCreator 2.0

  0  0  0  0  0  0              0 V3000
M  V30 BEGIN CTAB
M  V30 COUNTS 17 18 0 0 0
M  V30 BEGIN ATOM
M  V30 1 O 0.0 0.0 0.0 0
M  V30 2 C -0.0117 -1.486 0.0 0
M  V30 3 N 1.2737 -2.2173 0.0 0
M  V30 4 N -1.3209 -2.2173 0.0 0
M  V30 5 C 2.5593 -1.4624 0.0 0
M  V30 6 C -2.6301 -1.4624 0.0 0
M  V30 7 C 2.5475 0.0471 0.0 0
M  V30 8 C 3.8449 -2.1937 0.0 0
M  V30 9 C -3.9393 -2.1937 0.0 0
M  V30 10 C -2.6419 0.0471 0.0 0
M  V30 11 C 3.8331 0.8138 0.0 0
M  V30 12 C 5.1305 -1.4389 0.0 0
M  V30 13 C -5.2484 -1.4389 0.0 0
M  V30 14 C -3.9511 0.8138 0.0 0
M  V30 15 N 3.8213 2.3234 0.0 0
M  V30 16 C 5.1187 0.0707 0.0 0
M  V30 17 C -5.2602 0.0707 0.0 0
M  V30 END ATOM
M  V30 BEGIN BOND
M  V30 1 2 1 2
M  V30 2 1 2 3
M  V30 3 1 2 4
M  V30 4 1 3 5
M  V30 5 1 4 6
M  V30 6 2 5 7
M  V30 7 1 5 8
M  V30 8 2 6 9
M  V30 9 1 6 10
M  V30 10 1 7 11
M  V30 11 2 8 12
M  V30 12 1 9 13
M  V30 13 2 10 14
M  V30 14 1 11 15
M  V30 15 2 11 16
M  V30 16 2 13 17
M  V30 17 1 12 16
M  V30 18 1 14 17
M  V30 END BOND
M  V30 END CTAB
M  END
>  <Structure No>
242

>  <Catalog ID>
Z234815906

>  <MW (desalted)>
227.262

>  <ClogP>
1.783

>  <HBD>
3

>  <TPSA>
67.150

>  <RotBonds>
2

>  <Target>
Serine/threonine-protein kinase Chk1

>  <fromRegid>
CHEMBL354676

>  <Similarity>
0.91

$$$$
Compound 243
Actelion Java MolfileCreator 2.0

  0  0  0  0  0  0              0 V3000
M  V30 BEGIN CTAB
M  V30 COUNTS 18 18 0 0 0
M  V30 BEGIN ATOM
M  V30 1 Cl 0.0 0.0 0.0 0
M  V30 2 O 6.6191 0.9455 0.0 0
M  V30 3 C 7.9075 0.2127 0.0 0
M  V30 4 N 7.8957 -1.2765 0.0 0
M  V30 5 C 9.1959 0.9692 0.0 0
M  V30 6 C 6.6664 -2.1512 0.0 0 CFG=2
M  V30 7 C 9.1013 -2.1512 0.0 0
M  V30 8 C 9.1841 2.4821 0.0 0
M  V30 9 C 10.4842 0.2363 0.0 0
M  V30 10 C 7.1156 -3.5696 0.0 0
M  V30 11 C 5.2244 -1.6784 0.0 0
M  V30 12 C 8.6285 -3.5696 0.0 0
M  V30 13 C 10.4724 3.2504 0.0 0
M  V30 14 C 7.872 3.2504 0.0 0
M  V30 15 C 11.7726 0.9928 0.0 0
M  V30 16 N 4.1015 -2.6713 0.0 0
M  V30 17 C 11.7608 2.5058 0.0 0
M  V30 18 C 10.4606 4.7634 0.0 0
M  V30 END ATOM
M  V30 BEGIN BOND
M  V30 1 2 2 3
M  V30 2 1 3 4
M  V30 3 1 3 5
M  V30 4 1 4 6
M  V30 5 1 4 7
M  V30 6 2 5 8
M  V30 7 1 5 9
M  V30 8 1 6 10
M  V30 9 1 6 11 CFG=3
M  V30 10 1 7 12
M  V30 11 1 8 13
M  V30 12 1 8 14
M  V30 13 2 9 15
M  V30 14 1 11 16
M  V30 15 2 13 17
M  V30 16 1 13 18
M  V30 17 1 10 12
M  V30 18 1 15 17
M  V30 END BOND
M  V30 BEGIN COLLECTION
M  V30 MDLV30/STERAC1 ATOMS=(1 6)
M  V30 END COLLECTION
M  V30 END CTAB
M  END
>  <Structure No>
243

>  <Catalog ID>
Z1457711561

>  <MW (desalted)>
232.321

>  <ClogP>
1.824

>  <HBD>
1

>  <TPSA>
46.330

>  <RotBonds>
2

>  <Target>
Poly [ADP-ribose] polymerase-1

>  <fromRegid>
CHEMBL589755

>  <Similarity>
0.87

$$$$
Compound 244
Actelion Java MolfileCreator 2.0

  0  0  0  0  0  0              0 V3000
M  V30 BEGIN CTAB
M  V30 COUNTS 17 19 0 0 0
M  V30 BEGIN ATOM
M  V30 1 S 0.0 0.0 0.0 0
M  V30 2 C -0.8943 1.2237 0.0 0
M  V30 3 C 1.412 0.4706 0.0 0
M  V30 4 N -0.0235 2.4475 0.0 0
M  V30 5 N -2.4004 1.2355 0.0 0
M  V30 6 C 1.4002 1.9768 0.0 0
M  V30 7 C 2.6946 -0.2706 0.0 0
M  V30 8 C -3.1535 -0.047 0.0 0
M  V30 9 C 2.6829 2.7417 0.0 0
M  V30 10 C 3.9772 0.4942 0.0 0
M  V30 11 C -4.6597 -0.0353 0.0 0
M  V30 12 C 3.9655 2.0121 0.0 0
M  V30 13 C -5.4246 1.2708 0.0 0
M  V30 14 C -5.4246 -1.3179 0.0 0
M  V30 15 N -6.9308 1.2826 0.0 0
M  V30 16 C -6.9308 -1.3061 0.0 0
M  V30 17 C -7.6957 0.0 0.0 0
M  V30 END ATOM
M  V30 BEGIN BOND
M  V30 1 1 1 2
M  V30 2 1 1 3
M  V30 3 2 2 4
M  V30 4 1 2 5
M  V30 5 2 3 6
M  V30 6 1 3 7
M  V30 7 1 5 8
M  V30 8 1 6 9
M  V30 9 2 7 10
M  V30 10 1 8 11
M  V30 11 2 9 12
M  V30 12 2 11 13
M  V30 13 1 11 14
M  V30 14 1 13 15
M  V30 15 2 14 16
M  V30 16 2 15 17
M  V30 17 1 4 6
M  V30 18 1 10 12
M  V30 19 1 16 17
M  V30 END BOND
M  V30 END CTAB
M  END
>  <Structure No>
244

>  <Catalog ID>
Z86239022

>  <MW (desalted)>
241.312

>  <ClogP>
2.578

>  <HBD>
1

>  <TPSA>
37.810

>  <RotBonds>
3

>  <Target>
Serine/threonine-protein kinase Chk2

>  <fromRegid>
CHEMBL1983534

>  <Similarity>
0.86

$$$$
Compound 245
Actelion Java MolfileCreator 2.0

  0  0  0  0  0  0              0 V3000
M  V30 BEGIN CTAB
M  V30 COUNTS 17 19 0 0 0
M  V30 BEGIN ATOM
M  V30 1 S 0.0 0.0 0.0 0
M  V30 2 C -0.8968 1.2272 0.0 0
M  V30 3 C 1.416 0.472 0.0 0
M  V30 4 N -0.0236 2.4544 0.0 0
M  V30 5 N -2.4072 1.239 0.0 0
M  V30 6 C 1.4042 1.9824 0.0 0
M  V30 7 C 2.7022 -0.2714 0.0 0
M  V30 8 C -3.1624 -0.0472 0.0 0
M  V30 9 C 2.6904 2.7494 0.0 0
M  V30 10 C 3.9885 0.4956 0.0 0
M  V30 11 C -4.6729 -0.0354 0.0 0
M  V30 12 C 3.9767 2.0178 0.0 0
M  V30 13 C -5.4399 -1.3216 0.0 0
M  V30 14 S -6.9385 -1.4632 0.0 0
M  V30 15 C -4.8381 -2.6786 0.0 0
M  V30 16 C -7.2571 -2.9146 0.0 0
M  V30 17 C -5.9591 -3.6698 0.0 0
M  V30 END ATOM
M  V30 BEGIN BOND
M  V30 1 1 1 2
M  V30 2 1 1 3
M  V30 3 2 2 4
M  V30 4 1 2 5
M  V30 5 2 3 6
M  V30 6 1 3 7
M  V30 7 1 5 8
M  V30 8 1 6 9
M  V30 9 2 7 10
M  V30 10 1 8 11
M  V30 11 2 9 12
M  V30 12 1 11 13
M  V30 13 1 13 14
M  V30 14 2 13 15
M  V30 15 1 14 16
M  V30 16 1 15 17
M  V30 17 1 4 6
M  V30 18 1 10 12
M  V30 19 2 16 17
M  V30 END BOND
M  V30 END CTAB
M  END
>  <Structure No>
245

>  <Catalog ID>
Z86362958

>  <MW (desalted)>
260.378

>  <ClogP>
4.370

>  <HBD>
1

>  <TPSA>
24.920

>  <RotBonds>
4

>  <Target>
Serine/threonine-protein kinase Chk1

>  <fromRegid>
CHEMBL1421720

>  <Similarity>
0.86

$$$$
Compound 246
Actelion Java MolfileCreator 2.0

  0  0  0  0  0  0              0 V3000
M  V30 BEGIN CTAB
M  V30 COUNTS 17 19 0 0 0
M  V30 BEGIN ATOM
M  V30 1 O 0.0 0.0 0.0 0
M  V30 2 C 1.493 0.0118 0.0 0
M  V30 3 C -0.7702 -1.2916 0.0 0
M  V30 4 C 2.2395 1.3271 0.0 0
M  V30 5 C 2.2395 -1.2797 0.0 0
M  V30 6 C 3.7326 1.339 0.0 0
M  V30 7 C 3.7326 -1.2679 0.0 0
M  V30 8 C 4.4673 0.0473 0.0 0
M  V30 9 C 5.9603 0.0592 0.0 0
M  V30 10 N 6.8372 1.2916 0.0 0
M  V30 11 N 6.8372 -1.1494 0.0 0
M  V30 12 C 8.2592 0.8413 0.0 0
M  V30 13 C 8.2592 -0.6754 0.0 0
M  V30 14 C 9.5508 1.6115 0.0 0
M  V30 15 C 9.5508 -1.4219 0.0 0
M  V30 16 C 10.8424 0.8768 0.0 0
M  V30 17 C 10.8424 -0.6517 0.0 0
M  V30 END ATOM
M  V30 BEGIN BOND
M  V30 1 1 1 2
M  V30 2 1 1 3
M  V30 3 2 2 4
M  V30 4 1 2 5
M  V30 5 1 4 6
M  V30 6 2 5 7
M  V30 7 2 6 8
M  V30 8 1 8 9
M  V30 9 2 9 10
M  V30 10 1 9 11
M  V30 11 1 10 12
M  V30 12 1 11 13
M  V30 13 1 12 14
M  V30 14 1 13 15
M  V30 15 2 14 16
M  V30 16 2 15 17
M  V30 17 1 7 8
M  V30 18 2 12 13
M  V30 19 1 16 17
M  V30 END BOND
M  V30 END CTAB
M  END
>  <Structure No>
246

>  <Catalog ID>
Z50129948

>  <MW (desalted)>
224.258

>  <ClogP>
3.685

>  <HBD>
1

>  <TPSA>
37.910

>  <RotBonds>
2

>  <Target>
Serine/threonine-protein kinase Chk2

>  <fromRegid>
CHEMBL176554

>  <Similarity>
0.86

$$$$
Compound 247
Actelion Java MolfileCreator 2.0

  0  0  0  0  0  0              0 V3000
M  V30 BEGIN CTAB
M  V30 COUNTS 17 19 0 0 0
M  V30 BEGIN ATOM
M  V30 1 O 0.0 0.0 0.0 0
M  V30 2 C -1.3074 -0.7302 0.0 0
M  V30 3 C 1.2838 -0.7302 0.0 0
M  V30 4 C -2.6148 0.0235 0.0 0
M  V30 5 C -1.3192 -2.2143 0.0 0
M  V30 6 C -3.9223 -0.7067 0.0 0
M  V30 7 C -2.6266 -2.9446 0.0 0
M  V30 8 C -3.934 -2.1908 0.0 0
M  V30 9 C -5.3593 -0.2355 0.0 0
M  V30 10 N -5.371 -2.6384 0.0 0
M  V30 11 C -5.8304 1.2014 0.0 0
M  V30 12 C -6.2544 -1.4369 0.0 0
M  V30 13 C -7.3027 1.5194 0.0 0
M  V30 14 C -4.841 2.3204 0.0 0
M  V30 15 C -7.7739 2.9564 0.0 0
M  V30 16 C -5.3121 3.7574 0.0 0
M  V30 17 N -6.7845 4.0754 0.0 0
M  V30 END ATOM
M  V30 BEGIN BOND
M  V30 1 1 1 2
M  V30 2 1 1 3
M  V30 3 2 2 4
M  V30 4 1 2 5
M  V30 5 1 4 6
M  V30 6 2 5 7
M  V30 7 2 6 8
M  V30 8 1 6 9
M  V30 9 1 8 10
M  V30 10 1 9 11
M  V30 11 2 9 12
M  V30 12 2 11 13
M  V30 13 1 11 14
M  V30 14 1 13 15
M  V30 15 1 14 16
M  V30 16 1 15 17
M  V30 17 1 7 8
M  V30 18 1 10 12
M  V30 19 1 16 17
M  V30 END BOND
M  V30 END CTAB
M  END
>  <Structure No>
247

>  <Catalog ID>
Z385446106

>  <MW (desalted)>
228.290

>  <ClogP>
2.250

>  <HBD>
2

>  <TPSA>
37.050

>  <RotBonds>
2

>  <Target>
Serine/threonine-protein kinase Chk1

>  <fromRegid>
CHEMBL1987982

>  <Similarity>
0.85

$$$$
Compound 248
Actelion Java MolfileCreator 2.0

  0  0  0  0  0  0              0 V3000
M  V30 BEGIN CTAB
M  V30 COUNTS 17 17 0 0 0
M  V30 BEGIN ATOM
M  V30 1 O 0.0 0.0 0.0 0
M  V30 2 C -0.0118 1.5127 0.0 0
M  V30 3 N -1.3236 2.281 0.0 0
M  V30 4 C 1.2764 2.281 0.0 0
M  V30 5 C 2.5646 1.5364 0.0 0
M  V30 6 C 1.2646 3.7938 0.0 0
M  V30 7 C 3.8529 2.3046 0.0 0
M  V30 8 C 2.5528 4.562 0.0 0
M  V30 9 N 5.1411 1.56 0.0 0
M  V30 10 C 3.841 3.8174 0.0 0
M  V30 11 C 6.4293 2.3282 0.0 0
M  V30 12 O 6.4175 3.841 0.0 0
M  V30 13 C 7.7176 1.5837 0.0 0
M  V30 14 C 9.0058 2.3519 0.0 0
M  V30 15 C 10.2941 1.6073 0.0 0
M  V30 16 O 11.5823 2.3755 0.0 0
M  V30 17 O 10.2822 0.1181 0.0 0
M  V30 END ATOM
M  V30 BEGIN BOND
M  V30 1 2 1 2
M  V30 2 1 2 3
M  V30 3 1 2 4
M  V30 4 2 4 5
M  V30 5 1 4 6
M  V30 6 1 5 7
M  V30 7 2 6 8
M  V30 8 1 7 9
M  V30 9 2 7 10
M  V30 10 1 9 11
M  V30 11 2 11 12
M  V30 12 1 11 13
M  V30 13 1 13 14
M  V30 14 1 14 15
M  V30 15 2 15 16
M  V30 16 1 15 17
M  V30 17 1 8 10
M  V30 END BOND
M  V30 END CTAB
M  END
>  <Structure No>
248

>  <Catalog ID>
Z57198217

>  <MW (desalted)>
236.224

>  <ClogP>
-0.249

>  <HBD>
3

>  <TPSA>
109.490

>  <RotBonds>
5

>  <Target>
Poly [ADP-ribose] polymerase-1

>  <fromRegid>
CHEMBL3414766

>  <Similarity>
0.88

$$$$
Compound 249
Actelion Java MolfileCreator 2.0

  0  0  0  0  0  0              0 V3000
M  V30 BEGIN CTAB
M  V30 COUNTS 19 18 0 0 0
M  V30 BEGIN ATOM
M  V30 1 Cl 0.0 0.0 0.0 0
M  V30 2 Cl 3.5921 0.0945 0.0 0
M  V30 3 S -0.5671 -7.3734 0.0 0
M  V30 4 O 0.9216 -7.3616 0.0 0
M  V30 5 O -2.0796 -7.3616 0.0 0
M  V30 6 N -0.579 -8.8623 0.0 0
M  V30 7 C -0.579 -5.8609 0.0 0
M  V30 8 C -1.8906 -9.6067 0.0 0
M  V30 9 C 0.7089 -5.1046 0.0 0
M  V30 10 C -1.8906 -5.1046 0.0 0
M  V30 11 C -1.9024 -11.0955 0.0 0
M  V30 12 C 0.6971 -3.5921 0.0 0
M  V30 13 C 1.9969 -5.8373 0.0 0
M  V30 14 C -1.9024 -3.5921 0.0 0
M  V30 15 N -3.214 -11.8282 0.0 0
M  V30 16 C 1.9851 -2.8359 0.0 0
M  V30 17 C -0.6144 -2.8359 0.0 0
M  V30 18 C 3.2849 -5.081 0.0 0
M  V30 19 N 3.2731 -3.5803 0.0 0
M  V30 END ATOM
M  V30 BEGIN BOND
M  V30 1 2 3 4
M  V30 2 2 3 5
M  V30 3 1 3 6
M  V30 4 1 3 7
M  V30 5 1 6 8
M  V30 6 1 7 9
M  V30 7 2 7 10
M  V30 8 1 8 11
M  V30 9 1 9 12
M  V30 10 2 9 13
M  V30 11 1 10 14
M  V30 12 1 11 15
M  V30 13 2 12 16
M  V30 14 1 12 17
M  V30 15 1 13 18
M  V30 16 1 16 19
M  V30 17 2 14 17
M  V30 18 2 18 19
M  V30 END BOND
M  V30 END CTAB
M  END
>  <Structure No>
249

>  <Catalog ID>
Z3235015426

>  <MW (desalted)>
251.305

>  <ClogP>
0.903

>  <HBD>
2

>  <TPSA>
85.080

>  <RotBonds>
3

>  <Target>
CHK2

>  <fromRegid>


>  <Similarity>


$$$$
Compound 250
Actelion Java MolfileCreator 2.0

  0  0  0  0  0  0              0 V3000
M  V30 BEGIN CTAB
M  V30 COUNTS 17 18 0 0 0
M  V30 BEGIN ATOM
M  V30 1 Cl 0.0 0.0 0.0 0
M  V30 2 C -0.8922 1.2209 0.0 0
M  V30 3 C -2.3948 1.2326 0.0 0
M  V30 4 C -0.4461 2.6531 0.0 0
M  V30 5 N -2.8644 2.6649 0.0 0
M  V30 6 C -1.667 3.5453 0.0 0
M  V30 7 C -1.6787 5.048 0.0 0
M  V30 8 O -0.3991 5.7993 0.0 0
M  V30 9 N -2.9818 5.7993 0.0 0
M  V30 10 C -4.2849 5.0715 0.0 0
M  V30 11 C -2.9936 7.302 0.0 0
M  V30 12 C -5.588 5.8228 0.0 0 CFG=2
M  V30 13 C -4.2967 8.0534 0.0 0
M  V30 14 C -5.5998 7.3255 0.0 0
M  V30 15 C -6.8911 5.095 0.0 0
M  V30 16 N -8.1942 5.8463 0.0 0
M  V30 17 C -9.4973 5.1184 0.0 0
M  V30 END ATOM
M  V30 BEGIN BOND
M  V30 1 1 1 2
M  V30 2 2 2 3
M  V30 3 1 2 4
M  V30 4 1 3 5
M  V30 5 2 4 6
M  V30 6 1 6 7
M  V30 7 2 7 8
M  V30 8 1 7 9
M  V30 9 1 9 10
M  V30 10 1 9 11
M  V30 11 1 10 12
M  V30 12 1 11 13
M  V30 13 1 12 14
M  V30 14 1 12 15 CFG=1
M  V30 15 1 15 16
M  V30 16 1 16 17
M  V30 17 1 5 6
M  V30 18 1 13 14
M  V30 END BOND
M  V30 BEGIN COLLECTION
M  V30 MDLV30/STERAC1 ATOMS=(1 12)
M  V30 END COLLECTION
M  V30 END CTAB
M  END
>  <Structure No>
250

>  <Catalog ID>
Z763761462

>  <MW (desalted)>
255.744

>  <ClogP>
0.406

>  <HBD>
2

>  <TPSA>
48.130

>  <RotBonds>
3

>  <Target>
CHK1

>  <fromRegid>


>  <Similarity>


$$$$
Compound 251
Actelion Java MolfileCreator 2.0

  0  0  0  0  0  0              0 V3000
M  V30 BEGIN CTAB
M  V30 COUNTS 17 19 0 0 0
M  V30 BEGIN ATOM
M  V30 1 O 0.0 0.0 0.0 0
M  V30 2 C 1.2911 -0.7462 0.0 0 CFG=2
M  V30 3 C -1.3148 -0.7462 0.0 0
M  V30 4 C 1.2792 -2.2387 0.0 0
M  V30 5 C 2.5822 0.0236 0.0 0
M  V30 6 C -1.3266 -2.2387 0.0 0
M  V30 7 N -0.0355 -2.9731 0.0 0
M  V30 8 N 2.5703 1.5398 0.0 0
M  V30 9 C -0.0473 -4.4655 0.0 0
M  V30 10 N 1.2437 -5.1999 0.0 0
M  V30 11 C -1.3621 -5.1999 0.0 0
M  V30 12 C 1.2318 -6.6924 0.0 0
M  V30 13 N -2.8072 -4.7261 0.0 0
M  V30 14 C -1.374 -6.6924 0.0 0
M  V30 15 N -0.0829 -7.4268 0.0 0
M  V30 16 C -3.7075 -5.9343 0.0 0
M  V30 17 N -2.8191 -7.1425 0.0 0
M  V30 END ATOM
M  V30 BEGIN BOND
M  V30 1 1 1 2
M  V30 2 1 1 3
M  V30 3 1 2 4
M  V30 4 1 2 5 CFG=1
M  V30 5 1 3 6
M  V30 6 1 4 7
M  V30 7 1 5 8
M  V30 8 1 7 9
M  V30 9 2 9 10
M  V30 10 1 9 11
M  V30 11 1 10 12
M  V30 12 1 11 13
M  V30 13 2 11 14
M  V30 14 2 12 15
M  V30 15 1 13 16
M  V30 16 1 14 17
M  V30 17 1 6 7
M  V30 18 1 14 15
M  V30 19 2 16 17
M  V30 END BOND
M  V30 BEGIN COLLECTION
M  V30 MDLV30/STERAC1 ATOMS=(1 2)
M  V30 END COLLECTION
M  V30 END CTAB
M  END
>  <Structure No>
251

>  <Catalog ID>
Z803081352

>  <MW (desalted)>
234.258

>  <ClogP>
-0.582

>  <HBD>
2

>  <TPSA>
92.950

>  <RotBonds>
2

>  <Target>
Serine/threonine-protein kinase Chk1

>  <fromRegid>
CHEMBL271138

>  <Similarity>
0.87

$$$$
Compound 252
Actelion Java MolfileCreator 2.0

  0  0  0  0  0  0              0 V3000
M  V30 BEGIN CTAB
M  V30 COUNTS 17 18 0 0 0
M  V30 BEGIN ATOM
M  V30 1 S 0.0 0.0 0.0 0
M  V30 2 C -0.1653 1.5003 0.0 0
M  V30 3 C 1.453 -0.2953 0.0 0
M  V30 4 N 1.1931 2.1264 0.0 0
M  V30 5 N -1.4766 2.2563 0.0 0
M  V30 6 C 2.1973 1.0159 0.0 0
M  V30 7 C 2.1973 -1.583 0.0 0
M  V30 8 C -2.7879 1.5239 0.0 0
M  V30 9 C 3.6858 1.0277 0.0 0
M  V30 10 C 3.6858 -1.5711 0.0 0
M  V30 11 O -2.7997 0.0354 0.0 0
M  V30 12 C -4.0992 2.2799 0.0 0
M  V30 13 C 4.43 -0.2598 0.0 0
M  V30 14 C -5.4105 1.5475 0.0 0
M  V30 15 C -6.7218 2.3036 0.0 0
M  V30 16 O -6.7336 3.8157 0.0 0
M  V30 17 O -8.0331 1.5711 0.0 0
M  V30 END ATOM
M  V30 BEGIN BOND
M  V30 1 1 1 2
M  V30 2 1 1 3
M  V30 3 2 2 4
M  V30 4 1 2 5
M  V30 5 2 3 6
M  V30 6 1 3 7
M  V30 7 1 5 8
M  V30 8 1 6 9
M  V30 9 1 7 10
M  V30 10 2 8 11
M  V30 11 1 8 12
M  V30 12 1 9 13
M  V30 13 1 12 14
M  V30 14 1 14 15
M  V30 15 2 15 16
M  V30 16 1 15 17
M  V30 17 1 4 6
M  V30 18 1 10 13
M  V30 END BOND
M  V30 END CTAB
M  END
>  <Structure No>
252

>  <Catalog ID>
Z56803696

>  <MW (desalted)>
254.305

>  <ClogP>
1.752

>  <HBD>
2

>  <TPSA>
79.290

>  <RotBonds>
4

>  <Target>
Poly [ADP-ribose] polymerase-1

>  <fromRegid>
CHEMBL448447

>  <Similarity>
0.95

$$$$
Compound 253
Actelion Java MolfileCreator 2.0

  0  0  0  0  0  0              0 V3000
M  V30 BEGIN CTAB
M  V30 COUNTS 17 19 0 0 0
M  V30 BEGIN ATOM
M  V30 1 O 0.0 0.0 0.0 0
M  V30 2 C 0.4491 -1.4184 0.0 0
M  V30 3 N -0.4491 -2.6241 0.0 0
M  V30 4 C 1.8676 -1.8676 0.0 0
M  V30 5 C -1.9621 -2.6122 0.0 0
M  V30 6 C 0.4255 -3.8297 0.0 0
M  V30 7 C 1.8557 -3.3569 0.0 0
M  V30 8 C 3.156 -1.0992 0.0 0
M  V30 9 C -2.7186 -3.9007 0.0 0
M  V30 10 C -2.7186 -1.3002 0.0 0
M  V30 11 O -0.0472 -5.2482 0.0 0
M  V30 12 C 3.1442 -4.1016 0.0 0
M  V30 13 C 4.4444 -1.8321 0.0 0
M  V30 14 C -4.2316 -3.8888 0.0 0
M  V30 15 C -4.2316 -1.2884 0.0 0
M  V30 16 C 4.4326 -3.3333 0.0 0
M  V30 17 C -5.0 -2.5768 0.0 0
M  V30 END ATOM
M  V30 BEGIN BOND
M  V30 1 2 1 2
M  V30 2 1 2 3
M  V30 3 1 2 4
M  V30 4 1 3 5
M  V30 5 1 3 6
M  V30 6 2 4 7
M  V30 7 1 4 8
M  V30 8 2 5 9
M  V30 9 1 5 10
M  V30 10 2 6 11
M  V30 11 1 7 12
M  V30 12 2 8 13
M  V30 13 1 9 14
M  V30 14 2 10 15
M  V30 15 2 12 16
M  V30 16 2 14 17
M  V30 17 1 6 7
M  V30 18 1 13 16
M  V30 19 1 15 17
M  V30 END BOND
M  V30 END CTAB
M  END
>  <Structure No>
253

>  <Catalog ID>
Z57398053

>  <MW (desalted)>
223.227

>  <ClogP>
2.393

>  <HBD>
0

>  <TPSA>
37.380

>  <RotBonds>
1

>  <Target>
Poly [ADP-ribose] polymerase-1

>  <fromRegid>
CHEMBL611980

>  <Similarity>
0.86

$$$$
Compound 254
Actelion Java MolfileCreator 2.0

  0  0  0  0  0  0              0 V3000
M  V30 BEGIN CTAB
M  V30 COUNTS 17 18 0 0 0
M  V30 BEGIN ATOM
M  V30 1 O 0.0 0.0 0.0 0
M  V30 2 C -0.0118 -1.4941 0.0 0
M  V30 3 N -1.3281 -2.2293 0.0 0
M  V30 4 C 1.2806 -2.2293 0.0 0
M  V30 5 C -2.6444 -1.4704 0.0 0
M  V30 6 N 1.4229 -3.7116 0.0 0
M  V30 7 C 2.6444 -1.6008 0.0 0
M  V30 8 C -3.9606 -2.2056 0.0 0
M  V30 9 N 2.8815 -4.0081 0.0 0
M  V30 10 C 3.6405 -2.7036 0.0 0
M  V30 11 C -5.2769 -1.4467 0.0 0
M  V30 12 C 5.1227 -2.5376 0.0 0
M  V30 13 C 5.7275 -1.1502 0.0 0
M  V30 14 C 6.0003 -3.7472 0.0 0
M  V30 15 C 7.2098 -0.9842 0.0 0
M  V30 16 C 7.4825 -3.5812 0.0 0
M  V30 17 C 8.0873 -2.1937 0.0 0
M  V30 END ATOM
M  V30 BEGIN BOND
M  V30 1 2 1 2
M  V30 2 1 2 3
M  V30 3 1 2 4
M  V30 4 1 3 5
M  V30 5 2 4 6
M  V30 6 1 4 7
M  V30 7 1 5 8
M  V30 8 1 6 9
M  V30 9 2 7 10
M  V30 10 1 8 11
M  V30 11 1 10 12
M  V30 12 2 12 13
M  V30 13 1 12 14
M  V30 14 1 13 15
M  V30 15 2 14 16
M  V30 16 2 15 17
M  V30 17 1 9 10
M  V30 18 1 16 17
M  V30 END BOND
M  V30 END CTAB
M  END
>  <Structure No>
254

>  <Catalog ID>
Z183047826

>  <MW (desalted)>
229.278

>  <ClogP>
2.984

>  <HBD>
2

>  <TPSA>
57.780

>  <RotBonds>
4

>  <Target>
Serine/threonine-protein kinase Chk1

>  <fromRegid>
CHEMBL1995916

>  <Similarity>
0.91

$$$$
Compound 255
Actelion Java MolfileCreator 2.0

  0  0  0  0  0  0              0 V3000
M  V30 BEGIN CTAB
M  V30 COUNTS 17 19 0 0 0
M  V30 BEGIN ATOM
M  V30 1 O 0.0 0.0 0.0 0
M  V30 2 C -0.0118 1.5122 0.0 0
M  V30 3 N -1.3232 2.2802 0.0 0
M  V30 4 C 1.2759 2.2802 0.0 0
M  V30 5 C -1.335 3.7925 0.0 0
M  V30 6 C 1.2641 3.7925 0.0 0
M  V30 7 C 2.5638 1.5359 0.0 0
M  V30 8 C -0.0472 4.5605 0.0 0
M  V30 9 C 2.5519 4.5605 0.0 0
M  V30 10 C 3.8516 2.3038 0.0 0
M  V30 11 C 3.8398 3.8161 0.0 0
M  V30 12 C 5.1394 1.5595 0.0 0
M  V30 13 C 6.4272 2.3275 0.0 0
M  V30 14 C 5.1276 0.0708 0.0 0
M  V30 15 C 7.715 1.5831 0.0 0
M  V30 16 C 6.4154 -0.6734 0.0 0
M  V30 17 C 7.7032 0.0945 0.0 0
M  V30 END ATOM
M  V30 BEGIN BOND
M  V30 1 2 1 2
M  V30 2 1 2 3
M  V30 3 1 2 4
M  V30 4 1 3 5
M  V30 5 2 4 6
M  V30 6 1 4 7
M  V30 7 1 5 8
M  V30 8 1 6 9
M  V30 9 2 7 10
M  V30 10 2 9 11
M  V30 11 1 10 12
M  V30 12 2 12 13
M  V30 13 1 12 14
M  V30 14 1 13 15
M  V30 15 2 14 16
M  V30 16 2 15 17
M  V30 17 1 6 8
M  V30 18 1 10 11
M  V30 19 1 16 17
M  V30 END BOND
M  V30 END CTAB
M  END
>  <Structure No>
255

>  <Catalog ID>
Z1218937011

>  <MW (desalted)>
223.270

>  <ClogP>
2.884

>  <HBD>
1

>  <TPSA>
29.100

>  <RotBonds>
1

>  <Target>
Poly [ADP-ribose] polymerase-1

>  <fromRegid>
CHEMBL1688212

>  <Similarity>
0.87

$$$$
Compound 256
Actelion Java MolfileCreator 2.0

  0  0  0  0  0  0              0 V3000
M  V30 BEGIN CTAB
M  V30 COUNTS 17 18 0 0 0
M  V30 BEGIN ATOM
M  V30 1 S 0.0 0.0 0.0 0
M  V30 2 C 1.4536 -0.2954 0.0 0
M  V30 3 C -0.1654 1.5008 0.0 0
M  V30 4 N 2.4463 -1.3945 0.0 0
M  V30 5 C 2.1981 1.0163 0.0 0
M  V30 6 C -1.4772 2.2572 0.0 0
M  V30 7 C 1.1936 2.1272 0.0 0
M  V30 8 N 3.8053 -0.7681 0.0 0
M  V30 9 C 2.1272 -2.8481 0.0 0
M  V30 10 C 3.6517 0.7208 0.0 0
M  V30 11 O -1.489 3.7699 0.0 0
M  V30 12 N -2.789 1.5126 0.0 0
M  V30 13 C 4.7508 1.7372 0.0 0
M  V30 14 C -4.1008 2.269 0.0 0
M  V30 15 C -5.4126 1.5245 0.0 0
M  V30 16 C -6.7244 2.2808 0.0 0
M  V30 17 C -5.4244 0.0354 0.0 0
M  V30 END ATOM
M  V30 BEGIN BOND
M  V30 1 1 1 2
M  V30 2 1 1 3
M  V30 3 1 2 4
M  V30 4 2 2 5
M  V30 5 1 3 6
M  V30 6 2 3 7
M  V30 7 1 4 8
M  V30 8 1 4 9
M  V30 9 1 5 10
M  V30 10 2 6 11
M  V30 11 1 6 12
M  V30 12 1 10 13
M  V30 13 1 12 14
M  V30 14 1 14 15
M  V30 15 1 15 16
M  V30 16 1 15 17
M  V30 17 1 5 7
M  V30 18 2 8 10
M  V30 END BOND
M  V30 END CTAB
M  END
>  <Structure No>
256

>  <Catalog ID>
Z220832556

>  <MW (desalted)>
251.348

>  <ClogP>
2.311

>  <HBD>
1

>  <TPSA>
46.920

>  <RotBonds>
3

>  <Target>
Serine/threonine-protein kinase Chk1

>  <fromRegid>
CHEMBL1986588

>  <Similarity>
0.9

$$$$
Compound 257
Actelion Java MolfileCreator 2.0

  0  0  0  0  0  0              0 V3000
M  V30 BEGIN CTAB
M  V30 COUNTS 17 18 0 0 0
M  V30 BEGIN ATOM
M  V30 1 O 0.0 0.0 0.0 0
M  V30 2 C -1.314 -0.7339 0.0 0
M  V30 3 N -2.6281 0.0236 0.0 0
M  V30 4 C -1.3259 -2.2256 0.0 0
M  V30 5 C -2.6399 1.539 0.0 0
M  V30 6 N -2.5571 -3.1016 0.0 0
M  V30 7 C -0.1183 -3.1016 0.0 0
M  V30 8 C -3.954 2.2966 0.0 0
M  V30 9 C -1.3495 2.2966 0.0 0
M  V30 10 N -2.1072 -4.5223 0.0 0
M  V30 11 C -0.5919 -4.5223 0.0 0
M  V30 12 C 0.2841 -5.7298 0.0 0
M  V30 13 C 1.7639 -5.5641 0.0 0
M  V30 14 C -0.3433 -7.0912 0.0 0
M  V30 15 C 2.6399 -6.7716 0.0 0
M  V30 16 C 0.5327 -8.2988 0.0 0
M  V30 17 C 2.0125 -8.133 0.0 0
M  V30 END ATOM
M  V30 BEGIN BOND
M  V30 1 2 1 2
M  V30 2 1 2 3
M  V30 3 1 2 4
M  V30 4 1 3 5
M  V30 5 2 4 6
M  V30 6 1 4 7
M  V30 7 1 5 8
M  V30 8 1 5 9
M  V30 9 1 6 10
M  V30 10 2 7 11
M  V30 11 1 11 12
M  V30 12 2 12 13
M  V30 13 1 12 14
M  V30 14 1 13 15
M  V30 15 2 14 16
M  V30 16 2 15 17
M  V30 17 1 10 11
M  V30 18 1 16 17
M  V30 END BOND
M  V30 END CTAB
M  END
>  <Structure No>
257

>  <Catalog ID>
Z116305602

>  <MW (desalted)>
229.278

>  <ClogP>
2.764

>  <HBD>
2

>  <TPSA>
57.780

>  <RotBonds>
3

>  <Target>
Serine/threonine-protein kinase Chk1

>  <fromRegid>
CHEMBL1995916

>  <Similarity>
0.91

$$$$
Compound 258
Actelion Java MolfileCreator 2.0

  0  0  0  0  0  0              0 V3000
M  V30 BEGIN CTAB
M  V30 COUNTS 17 19 0 0 0
M  V30 BEGIN ATOM
M  V30 1 S 0.0 0.0 0.0 0
M  V30 2 C 1.2003 0.8943 0.0 0
M  V30 3 C 0.4471 -1.4122 0.0 0
M  V30 4 C 1.1886 2.4007 0.0 0
M  V30 5 C 2.4007 0.0235 0.0 0
M  V30 6 C 1.93 -1.4004 0.0 0
M  V30 7 N -0.1176 3.1656 0.0 0
M  V30 8 C 2.4713 3.1656 0.0 0
M  V30 9 N -1.5534 2.7184 0.0 0
M  V30 10 C -0.1294 4.672 0.0 0
M  V30 11 C 2.4595 4.672 0.0 0
M  V30 12 C -2.4478 3.9424 0.0 0
M  V30 13 N 1.1533 5.4369 0.0 0
M  V30 14 C -1.5651 5.1427 0.0 0
M  V30 15 C -3.9541 3.9541 0.0 0
M  V30 16 O -4.7073 2.6714 0.0 0
M  V30 17 O -4.7073 5.2604 0.0 0
M  V30 END ATOM
M  V30 BEGIN BOND
M  V30 1 1 1 2
M  V30 2 1 1 3
M  V30 3 1 2 4
M  V30 4 2 2 5
M  V30 5 2 3 6
M  V30 6 1 4 7
M  V30 7 2 4 8
M  V30 8 1 7 9
M  V30 9 1 7 10
M  V30 10 1 8 11
M  V30 11 2 9 12
M  V30 12 1 10 13
M  V30 13 2 10 14
M  V30 14 1 12 15
M  V30 15 2 15 16
M  V30 16 1 15 17
M  V30 17 1 5 6
M  V30 18 2 11 13
M  V30 19 1 12 14
M  V30 END BOND
M  V30 END CTAB
M  END
>  <Structure No>
258

>  <Catalog ID>
Z1263738754

>  <MW (desalted)>
245.257

>  <ClogP>
2.382

>  <HBD>
1

>  <TPSA>
67.490

>  <RotBonds>
2

>  <Target>
Serine/threonine-protein kinase Chk1

>  <fromRegid>
CHEMBL1977619

>  <Similarity>
0.93

$$$$
Compound 259
Actelion Java MolfileCreator 2.0

  0  0  0  0  0  0              0 V3000
M  V30 BEGIN CTAB
M  V30 COUNTS 17 19 0 0 0
M  V30 BEGIN ATOM
M  V30 1 O 0.0 0.0 0.0 0
M  V30 2 C -0.0117 1.5065 0.0 0
M  V30 3 N -1.3182 2.2716 0.0 0
M  V30 4 C 1.2711 2.2716 0.0 0
M  V30 5 C -1.33 3.7782 0.0 0
M  V30 6 C 1.2594 3.7782 0.0 0
M  V30 7 C 2.5541 1.5301 0.0 0
M  V30 8 N -0.047 4.5315 0.0 0
M  V30 9 C -2.6365 4.5315 0.0 0
M  V30 10 C 2.5423 4.5315 0.0 0
M  V30 11 C 3.837 2.2951 0.0 0
M  V30 12 C -3.943 3.8017 0.0 0
M  V30 13 C -2.6482 6.0381 0.0 0
M  V30 14 C 3.8253 3.8017 0.0 0
M  V30 15 C -5.2495 4.555 0.0 0
M  V30 16 C -3.9547 6.7914 0.0 0
M  V30 17 N -5.2612 6.0616 0.0 0
M  V30 END ATOM
M  V30 BEGIN BOND
M  V30 1 1 1 2
M  V30 2 2 2 3
M  V30 3 1 2 4
M  V30 4 1 3 5
M  V30 5 1 4 6
M  V30 6 2 4 7
M  V30 7 2 5 8
M  V30 8 1 5 9
M  V30 9 2 6 10
M  V30 10 1 7 11
M  V30 11 2 9 12
M  V30 12 1 9 13
M  V30 13 1 10 14
M  V30 14 1 12 15
M  V30 15 2 13 16
M  V30 16 2 15 17
M  V30 17 1 6 8
M  V30 18 2 11 14
M  V30 19 1 16 17
M  V30 END BOND
M  V30 END CTAB
M  END
>  <Structure No>
259

>  <Catalog ID>
Z275254054

>  <MW (desalted)>
223.230

>  <ClogP>
2.428

>  <HBD>
1

>  <TPSA>
58.900

>  <RotBonds>
1

>  <Target>
Poly [ADP-ribose] polymerase-1

>  <fromRegid>
CHEMBL127066

>  <Similarity>
0.89

$$$$
Compound 260
Actelion Java MolfileCreator 2.0

  0  0  0  0  0  0              0 V3000
M  V30 BEGIN CTAB
M  V30 COUNTS 24 25 0 0 0
M  V30 BEGIN ATOM
M  V30 1 O 0.0 0.0 0.0 0
M  V30 2 C -1.3085 -0.7308 0.0 0
M  V30 3 N -1.3203 -2.2162 0.0 0
M  V30 4 C -2.617 0.0235 0.0 0
M  V30 5 C -0.0353 -2.9589 0.0 0
M  V30 6 C -3.9255 -0.7073 0.0 0
M  V30 7 C -2.6288 1.5325 0.0 0
M  V30 8 C 1.2495 -2.1926 0.0 0
M  V30 9 C -5.2341 0.0471 0.0 0
M  V30 10 C -3.9373 2.2869 0.0 0
M  V30 11 C 1.2377 -0.6837 0.0 0
M  V30 12 C 2.5345 -2.9353 0.0 0
M  V30 13 N -6.5426 -0.6837 0.0 0
M  V30 14 C -5.2458 1.556 0.0 0
M  V30 15 C 2.5227 0.0707 0.0 0
M  V30 16 C 3.8194 -2.169 0.0 0
M  V30 17 C -7.8511 0.0707 0.0 0
M  V30 18 C 3.8076 -0.6601 0.0 0
M  V30 19 O -7.8629 1.5796 0.0 0
M  V30 20 C -9.1596 -0.6601 0.0 0
M  V30 21 C -10.4682 0.0943 0.0 0
M  V30 22 C -11.7767 -0.6365 0.0 0
M  V30 23 O -11.7885 -2.1219 0.0 0
M  V30 24 O -13.0852 0.1178 0.0 0
M  V30 END ATOM
M  V30 BEGIN BOND
M  V30 1 2 1 2
M  V30 2 1 2 3
M  V30 3 1 2 4
M  V30 4 1 3 5
M  V30 5 2 4 6
M  V30 6 1 4 7
M  V30 7 1 5 8
M  V30 8 1 6 9
M  V30 9 2 7 10
M  V30 10 2 8 11
M  V30 11 1 8 12
M  V30 12 1 9 13
M  V30 13 2 9 14
M  V30 14 1 11 15
M  V30 15 2 12 16
M  V30 16 1 13 17
M  V30 17 2 15 18
M  V30 18 2 17 19
M  V30 19 1 17 20
M  V30 20 1 20 21
M  V30 21 1 21 22
M  V30 22 2 22 23
M  V30 23 1 22 24
M  V30 24 1 10 14
M  V30 25 1 16 18
M  V30 END BOND
M  V30 END CTAB
M  END
>  <Structure No>
260

>  <Catalog ID>
Z1508928337

>  <MW (desalted)>
326.347

>  <ClogP>
1.925

>  <HBD>
3

>  <TPSA>
95.500

>  <RotBonds>
7

>  <Target>
Poly [ADP-ribose] polymerase-1

>  <fromRegid>
CHEMBL3414756

>  <Similarity>
0.9

$$$$
Compound 261
Actelion Java MolfileCreator 2.0

  0  0  0  0  0  0              0 V3000
M  V30 BEGIN CTAB
M  V30 COUNTS 17 19 0 0 0
M  V30 BEGIN ATOM
M  V30 1 Cl 0.0 0.0 0.0 0
M  V30 2 C 1.4267 0.4518 0.0 0
M  V30 3 C 2.5205 -0.5588 0.0 0
M  V30 4 C 1.7477 1.9379 0.0 0
M  V30 5 C 3.9473 -0.107 0.0 0
M  V30 6 C 3.1744 2.3897 0.0 0
M  V30 7 N 4.8746 -1.2721 0.0 0
M  V30 8 C 4.2683 1.3791 0.0 0
M  V30 9 C 6.3727 -1.2602 0.0 0
M  V30 10 N 5.6118 2.0449 0.0 0
M  V30 11 O 7.0148 -2.6038 0.0 0
M  V30 12 C 7.3001 -0.0713 0.0 0
M  V30 13 C 6.9553 1.4029 0.0 0
M  V30 14 C 8.7268 -0.4993 0.0 0
M  V30 15 C 8.0491 2.4373 0.0 0
M  V30 16 C 9.8207 0.535 0.0 0
M  V30 17 C 9.4759 2.0093 0.0 0
M  V30 END ATOM
M  V30 BEGIN BOND
M  V30 1 1 1 2
M  V30 2 2 2 3
M  V30 3 1 2 4
M  V30 4 1 3 5
M  V30 5 2 4 6
M  V30 6 1 5 7
M  V30 7 2 5 8
M  V30 8 1 7 9
M  V30 9 1 8 10
M  V30 10 2 9 11
M  V30 11 1 9 12
M  V30 12 1 10 13
M  V30 13 1 12 14
M  V30 14 1 13 15
M  V30 15 2 14 16
M  V30 16 2 15 17
M  V30 17 1 6 8
M  V30 18 2 12 13
M  V30 19 1 16 17
M  V30 END BOND
M  V30 END CTAB
M  END
>  <Structure No>
261

>  <Catalog ID>
Z1650974438

>  <MW (desalted)>
244.676

>  <ClogP>
3.468

>  <HBD>
2

>  <TPSA>
41.130

>  <RotBonds>
0

>  <Target>
Serine/threonine-protein kinase Chk2

>  <fromRegid>
CHEMBL1727312

>  <Similarity>
0.88

$$$$
Compound 262
Actelion Java MolfileCreator 2.0

  0  0  0  0  0  0              0 V3000
M  V30 BEGIN CTAB
M  V30 COUNTS 17 19 0 0 0
M  V30 BEGIN ATOM
M  V30 1 O 0.0 0.0 0.0 0
M  V30 2 C -0.0118 1.5122 0.0 0
M  V30 3 N -1.3232 2.2802 0.0 0
M  V30 4 C 1.2759 2.2802 0.0 0
M  V30 5 C -1.335 3.7925 0.0 0
M  V30 6 C 1.2641 3.7925 0.0 0
M  V30 7 C 2.5638 1.5359 0.0 0
M  V30 8 N -0.0472 4.5605 0.0 0
M  V30 9 C 2.5519 4.5605 0.0 0
M  V30 10 C 3.8516 2.3038 0.0 0
M  V30 11 C 3.8398 3.8161 0.0 0
M  V30 12 C 5.1394 1.5595 0.0 0
M  V30 13 C 6.4272 2.3275 0.0 0
M  V30 14 C 5.1276 0.0708 0.0 0
M  V30 15 C 7.715 1.5831 0.0 0
M  V30 16 C 6.4154 -0.6734 0.0 0
M  V30 17 C 7.7032 0.0945 0.0 0
M  V30 END ATOM
M  V30 BEGIN BOND
M  V30 1 2 1 2
M  V30 2 1 2 3
M  V30 3 1 2 4
M  V30 4 1 3 5
M  V30 5 2 4 6
M  V30 6 1 4 7
M  V30 7 2 5 8
M  V30 8 1 6 9
M  V30 9 2 7 10
M  V30 10 2 9 11
M  V30 11 1 10 12
M  V30 12 2 12 13
M  V30 13 1 12 14
M  V30 14 1 13 15
M  V30 15 2 14 16
M  V30 16 2 15 17
M  V30 17 1 6 8
M  V30 18 1 10 11
M  V30 19 1 16 17
M  V30 END BOND
M  V30 END CTAB
M  END
>  <Structure No>
262

>  <Catalog ID>
Z1694627946

>  <MW (desalted)>
222.242

>  <ClogP>
2.193

>  <HBD>
1

>  <TPSA>
41.460

>  <RotBonds>
1

>  <Target>
Poly [ADP-ribose] polymerase-1

>  <fromRegid>
CHEMBL266540

>  <Similarity>
0.89

$$$$
Compound 263
Actelion Java MolfileCreator 2.0

  0  0  0  0  0  0              0 V3000
M  V30 BEGIN CTAB
M  V30 COUNTS 17 19 0 0 0
M  V30 BEGIN ATOM
M  V30 1 O 0.0 0.0 0.0 0
M  V30 2 C 1.2907 -0.746 0.0 0
M  V30 3 C -1.3144 -0.746 0.0 0
M  V30 4 C 1.2789 -2.2381 0.0 0
M  V30 5 C 2.5815 0.0236 0.0 0
M  V30 6 C -1.3263 -2.2381 0.0 0
M  V30 7 C -2.6289 0.0236 0.0 0
M  V30 8 N -0.0355 -2.9723 0.0 0
M  V30 9 C -0.0473 -4.4644 0.0 0
M  V30 10 N 1.2434 -5.1986 0.0 0
M  V30 11 C -1.3618 -5.1986 0.0 0
M  V30 12 C 1.2315 -6.6907 0.0 0
M  V30 13 N -2.8065 -4.7249 0.0 0
M  V30 14 C -1.3736 -6.6907 0.0 0
M  V30 15 N -0.0828 -7.4249 0.0 0
M  V30 16 C -3.7065 -5.9328 0.0 0
M  V30 17 N -2.8183 -7.1407 0.0 0
M  V30 END ATOM
M  V30 BEGIN BOND
M  V30 1 1 1 2
M  V30 2 1 1 3
M  V30 3 1 2 4
M  V30 4 1 2 5
M  V30 5 1 3 6
M  V30 6 1 3 7
M  V30 7 1 4 8
M  V30 8 1 8 9
M  V30 9 2 9 10
M  V30 10 1 9 11
M  V30 11 1 10 12
M  V30 12 1 11 13
M  V30 13 2 11 14
M  V30 14 2 12 15
M  V30 15 2 13 16
M  V30 16 1 14 17
M  V30 17 1 6 8
M  V30 18 1 14 15
M  V30 19 1 16 17
M  V30 END BOND
M  V30 END CTAB
M  END
>  <Structure No>
263

>  <Catalog ID>
Z57745246

>  <MW (desalted)>
233.270

>  <ClogP>
1.067

>  <HBD>
1

>  <TPSA>
66.930

>  <RotBonds>
1

>  <Target>
Serine/threonine-protein kinase Chk1

>  <fromRegid>
CHEMBL271138

>  <Similarity>
0.89

$$$$
Compound 264
Actelion Java MolfileCreator 2.0

  0  0  0  0  0  0              0 V3000
M  V30 BEGIN CTAB
M  V30 COUNTS 17 19 0 0 0
M  V30 BEGIN ATOM
M  V30 1 O 0.0 0.0 0.0 0
M  V30 2 C -0.0117 1.5065 0.0 0
M  V30 3 N -1.3182 2.2716 0.0 0
M  V30 4 C 1.2711 2.2716 0.0 0
M  V30 5 C -1.33 3.7782 0.0 0 CFG=2
M  V30 6 C 1.2594 3.7782 0.0 0
M  V30 7 C 2.5541 1.5301 0.0 0
M  V30 8 N -0.047 4.5315 0.0 0
M  V30 9 C -2.6365 4.5315 0.0 0
M  V30 10 C 2.5423 4.5315 0.0 0
M  V30 11 C 3.837 2.2951 0.0 0
M  V30 12 C -3.943 3.8017 0.0 0
M  V30 13 C -2.6482 6.0381 0.0 0
M  V30 14 C 3.8253 3.8017 0.0 0
M  V30 15 C -5.2495 4.555 0.0 0
M  V30 16 C -3.9547 6.7914 0.0 0
M  V30 17 C -5.2612 6.0616 0.0 0
M  V30 END ATOM
M  V30 BEGIN BOND
M  V30 1 2 1 2
M  V30 2 1 2 3
M  V30 3 1 2 4
M  V30 4 1 3 5
M  V30 5 2 4 6
M  V30 6 1 4 7
M  V30 7 1 5 8
M  V30 8 1 5 9 CFG=1
M  V30 9 1 6 10
M  V30 10 2 7 11
M  V30 11 2 9 12
M  V30 12 1 9 13
M  V30 13 2 10 14
M  V30 14 1 12 15
M  V30 15 2 13 16
M  V30 16 2 15 17
M  V30 17 1 6 8
M  V30 18 1 11 14
M  V30 19 1 16 17
M  V30 END BOND
M  V30 BEGIN COLLECTION
M  V30 MDLV30/STERAC1 ATOMS=(1 5)
M  V30 END COLLECTION
M  V30 END CTAB
M  END
>  <Structure No>
264

>  <Catalog ID>
Z48978308

>  <MW (desalted)>
224.258

>  <ClogP>
2.320

>  <HBD>
2

>  <TPSA>
41.130

>  <RotBonds>
1

>  <Target>
Poly [ADP-ribose] polymerase-1

>  <fromRegid>
CHEMBL3594136

>  <Similarity>
0.89

$$$$
Compound 265
Actelion Java MolfileCreator 2.0

  0  0  0  0  0  0              0 V3000
M  V30 BEGIN CTAB
M  V30 COUNTS 17 17 0 0 0
M  V30 BEGIN ATOM
M  V30 1 Cl 0.0 0.0 0.0 0
M  V30 2 C -0.0118 -1.4932 0.0 0
M  V30 3 C 1.2799 -2.2398 0.0 0
M  V30 4 C -1.3273 -2.2398 0.0 0
M  V30 5 C 2.5716 -1.4813 0.0 0
M  V30 6 C 1.268 -3.733 0.0 0
M  V30 7 C -1.3391 -3.733 0.0 0
M  V30 8 O 2.5598 0.0355 0.0 0
M  V30 9 N 3.8634 -2.2279 0.0 0
M  V30 10 C -0.0474 -4.4796 0.0 0
M  V30 11 F -2.6546 -4.4796 0.0 0
M  V30 12 C 5.1551 -1.4695 0.0 0 CFG=2
M  V30 13 F -0.0592 -5.9729 0.0 0
M  V30 14 C 6.4469 -2.2161 0.0 0
M  V30 15 C 5.1433 0.0474 0.0 0
M  V30 16 O 7.7387 -1.4576 0.0 0
M  V30 17 N 6.4351 -3.7093 0.0 0
M  V30 END ATOM
M  V30 BEGIN BOND
M  V30 1 1 1 2
M  V30 2 2 2 3
M  V30 3 1 2 4
M  V30 4 1 3 5
M  V30 5 1 3 6
M  V30 6 2 4 7
M  V30 7 2 5 8
M  V30 8 1 5 9
M  V30 9 2 6 10
M  V30 10 1 7 11
M  V30 11 1 12 9 CFG=1
M  V30 12 1 10 13
M  V30 13 1 12 14
M  V30 14 1 12 15
M  V30 15 2 14 16
M  V30 16 1 14 17
M  V30 17 1 7 10
M  V30 END BOND
M  V30 BEGIN COLLECTION
M  V30 MDLV30/STEABS ATOMS=(1 12)
M  V30 END COLLECTION
M  V30 END CTAB
M  END
>  <Structure No>
265

>  <Catalog ID>
Z1629028792

>  <MW (desalted)>
262.640

>  <ClogP>
0.445

>  <HBD>
2

>  <TPSA>
72.190

>  <RotBonds>
3

>  <Target>
ATM

>  <fromRegid>


>  <Similarity>


$$$$
Compound 266
Actelion Java MolfileCreator 2.0

  0  0  0  0  0  0              0 V3000
M  V30 BEGIN CTAB
M  V30 COUNTS 18 19 0 0 0
M  V30 BEGIN ATOM
M  V30 1 S 0.0 0.0 0.0 0
M  V30 2 O 0.4484 1.4397 0.0 0
M  V30 3 O -0.472 -1.4161 0.0 0
M  V30 4 N -1.4397 0.472 0.0 0
M  V30 5 C 1.4161 -0.4484 0.0 0
M  V30 6 C -1.7583 1.9472 0.0 0 CFG=2
M  V30 7 C -2.5608 -0.5192 0.0 0
M  V30 8 C 2.6198 0.4484 0.0 0
M  V30 9 C 1.8646 -1.8646 0.0 0
M  V30 10 C -3.1981 2.4192 0.0 0
M  V30 11 C -0.6608 2.9621 0.0 0
M  V30 12 C -4.0006 -0.0472 0.0 0
M  V30 13 N 3.8236 -0.4248 0.0 0
M  V30 14 C 2.608 1.959 0.0 0
M  V30 15 N 3.3515 -1.8528 0.0 0
M  V30 16 C 0.9677 -3.0683 0.0 0
M  V30 17 C -4.3192 1.4279 0.0 0
M  V30 18 N 0.7552 2.5136 0.0 0
M  V30 END ATOM
M  V30 BEGIN BOND
M  V30 1 2 1 2
M  V30 2 2 1 3
M  V30 3 1 1 4
M  V30 4 1 1 5
M  V30 5 1 4 6
M  V30 6 1 4 7
M  V30 7 1 5 8
M  V30 8 2 5 9
M  V30 9 1 6 10
M  V30 10 1 6 11 CFG=3
M  V30 11 1 7 12
M  V30 12 2 8 13
M  V30 13 1 8 14
M  V30 14 1 9 15
M  V30 15 1 9 16
M  V30 16 1 10 17
M  V30 17 1 11 18
M  V30 18 1 12 17
M  V30 19 1 13 15
M  V30 END BOND
M  V30 BEGIN COLLECTION
M  V30 MDLV30/STERAC1 ATOMS=(1 6)
M  V30 END COLLECTION
M  V30 END CTAB
M  END
>  <Structure No>
266

>  <Catalog ID>
Z871859290

>  <MW (desalted)>
272.367

>  <ClogP>
1.034

>  <HBD>
2

>  <TPSA>
92.080

>  <RotBonds>
2

>  <Target>
CHK1

>  <fromRegid>


>  <Similarity>


$$$$
Compound 267
Actelion Java MolfileCreator 2.0

  0  0  0  0  0  0              0 V3000
M  V30 BEGIN CTAB
M  V30 COUNTS 18 20 0 0 0
M  V30 BEGIN ATOM
M  V30 1 S 0.0 0.0 0.0 0
M  V30 2 C -1.224 0.8891 0.0 0
M  V30 3 C 1.2009 0.8891 0.0 0
M  V30 4 N -2.702 0.5889 0.0 0
M  V30 5 C -0.7736 2.321 0.0 0
M  V30 6 C 0.7274 2.321 0.0 0
M  V30 7 C 2.6558 0.5889 0.0 0
M  V30 8 C -3.7182 1.7089 0.0 0
M  V30 9 C -1.7898 3.441 0.0 0
M  V30 10 C 1.7205 3.441 0.0 0
M  V30 11 C 3.6489 1.7089 0.0 0 CFG=2
M  V30 12 N -3.2678 3.1408 0.0 0
M  V30 13 C -5.1962 1.4087 0.0 0
M  V30 14 O -1.3394 4.8729 0.0 0
M  V30 15 C 3.1755 3.1408 0.0 0
M  V30 16 C 5.1039 1.4087 0.0 0
M  V30 17 C -5.6697 0.0 0.0 0
M  V30 18 N -6.1431 -1.4087 0.0 0
M  V30 END ATOM
M  V30 BEGIN BOND
M  V30 1 1 1 2
M  V30 2 1 1 3
M  V30 3 1 2 4
M  V30 4 2 2 5
M  V30 5 2 3 6
M  V30 6 1 3 7
M  V30 7 2 4 8
M  V30 8 1 5 9
M  V30 9 1 6 10
M  V30 10 1 7 11
M  V30 11 1 8 12
M  V30 12 1 8 13
M  V30 13 2 9 14
M  V30 14 1 10 15
M  V30 15 1 11 16 CFG=3
M  V30 16 1 13 17
M  V30 17 3 17 18
M  V30 18 1 5 6
M  V30 19 1 9 12
M  V30 20 1 11 15
M  V30 END BOND
M  V30 BEGIN COLLECTION
M  V30 MDLV30/STERAC1 ATOMS=(1 11)
M  V30 END COLLECTION
M  V30 END CTAB
M  END
>  <Structure No>
267

>  <Catalog ID>
Z56891276

>  <MW (desalted)>
259.327

>  <ClogP>
1.637

>  <HBD>
1

>  <TPSA>
65.250

>  <RotBonds>
1

>  <Target>
Poly [ADP-ribose] polymerase-1

>  <fromRegid>
CHEMBL3616846

>  <Similarity>
0.88

$$$$
Compound 268
Actelion Java MolfileCreator 2.0

  0  0  0  0  0  0              0 V3000
M  V30 BEGIN CTAB
M  V30 COUNTS 18 20 0 0 0
M  V30 BEGIN ATOM
M  V30 1 Br 0.0 0.0 0.0 0
M  V30 2 C 1.2978 -0.7382 0.0 0
M  V30 3 C 2.5956 0.0238 0.0 0
M  V30 4 C 1.2859 -2.2384 0.0 0
M  V30 5 C 3.8934 -0.7143 0.0 0
M  V30 6 C 2.5837 -2.9766 0.0 0
M  V30 7 C 3.8815 -2.2146 0.0 0
M  V30 8 C 5.1793 -2.9528 0.0 0
M  V30 9 N 6.4771 -2.1907 0.0 0
M  V30 10 N 5.1674 -4.453 0.0 0
M  V30 11 C 7.7749 -2.9289 0.0 0
M  V30 12 C 6.4652 -5.2031 0.0 0
M  V30 13 C 7.763 -4.4292 0.0 0
M  V30 14 C 9.0727 -2.1669 0.0 0
M  V30 15 O 6.4533 -6.7033 0.0 0
M  V30 16 C 9.0608 -5.1793 0.0 0
M  V30 17 C 10.3705 -2.9051 0.0 0
M  V30 18 C 10.3586 -4.4054 0.0 0
M  V30 END ATOM
M  V30 BEGIN BOND
M  V30 1 1 1 2
M  V30 2 2 2 3
M  V30 3 1 2 4
M  V30 4 1 3 5
M  V30 5 2 4 6
M  V30 6 2 5 7
M  V30 7 1 7 8
M  V30 8 2 8 9
M  V30 9 1 8 10
M  V30 10 1 9 11
M  V30 11 1 10 12
M  V30 12 2 11 13
M  V30 13 1 11 14
M  V30 14 2 12 15
M  V30 15 1 13 16
M  V30 16 2 14 17
M  V30 17 2 16 18
M  V30 18 1 6 7
M  V30 19 1 12 13
M  V30 20 1 17 18
M  V30 END BOND
M  V30 END CTAB
M  END
>  <Structure No>
268

>  <Catalog ID>
Z56974849

>  <MW (desalted)>
301.138

>  <ClogP>
3.281

>  <HBD>
1

>  <TPSA>
41.460

>  <RotBonds>
1

>  <Target>
Poly [ADP-ribose] polymerase-1

>  <fromRegid>
CHEMBL3289109

>  <Similarity>
0.89

$$$$
Compound 269
Actelion Java MolfileCreator 2.0

  0  0  0  0  0  0              0 V3000
M  V30 BEGIN CTAB
M  V30 COUNTS 18 20 0 0 0
M  V30 BEGIN ATOM
M  V30 1 O 0.0 0.0 0.0 0
M  V30 2 C -1.3072 -0.7301 0.0 0
M  V30 3 N -2.6145 0.0235 0.0 0
M  V30 4 N -1.319 -2.2141 0.0 0
M  V30 5 C -3.9218 -0.7066 0.0 0
M  V30 6 C -2.6263 1.531 0.0 0
M  V30 7 C -2.6263 -2.9561 0.0 0
M  V30 8 N -5.2291 0.0471 0.0 0
M  V30 9 C -3.9336 -2.1905 0.0 0
M  V30 10 C -3.3801 2.8383 0.0 0
M  V30 11 C -1.8843 2.8383 0.0 0
M  V30 12 O -2.6381 -4.44 0.0 0
M  V30 13 C -6.5364 -0.683 0.0 0
M  V30 14 C -5.2409 -2.9325 0.0 0
M  V30 15 C -6.5482 -2.167 0.0 0
M  V30 16 C -7.8555 -2.909 0.0 0
M  V30 17 O -9.1627 -2.1434 0.0 0
M  V30 18 O -7.8672 -4.3929 0.0 0
M  V30 END ATOM
M  V30 BEGIN BOND
M  V30 1 2 1 2
M  V30 2 1 2 3
M  V30 3 1 2 4
M  V30 4 1 3 5
M  V30 5 1 3 6
M  V30 6 1 4 7
M  V30 7 2 5 8
M  V30 8 1 5 9
M  V30 9 1 6 10
M  V30 10 1 6 11
M  V30 11 2 7 12
M  V30 12 1 8 13
M  V30 13 2 9 14
M  V30 14 2 13 15
M  V30 15 1 15 16
M  V30 16 2 16 17
M  V30 17 1 16 18
M  V30 18 1 7 9
M  V30 19 1 10 11
M  V30 20 1 14 15
M  V30 END BOND
M  V30 END CTAB
M  END
>  <Structure No>
269

>  <Catalog ID>
Z235361937

>  <MW (desalted)>
247.207

>  <ClogP>
0.635

>  <HBD>
2

>  <TPSA>
99.600

>  <RotBonds>
2

>  <Target>
Serine/threonine-protein kinase Chk1

>  <fromRegid>
CHEMBL1977874

>  <Similarity>
0.86

$$$$
Compound 270
Actelion Java MolfileCreator 2.0

  0  0  0  0  0  0              0 V3000
M  V30 BEGIN CTAB
M  V30 COUNTS 18 19 0 0 0
M  V30 BEGIN ATOM
M  V30 1 O 0.0 0.0 0.0 0
M  V30 2 C -1.3039 0.7518 0.0 0
M  V30 3 N -1.3157 2.2555 0.0 0
M  V30 4 N -2.6079 0.0234 0.0 0
M  V30 5 C -2.6197 3.0073 0.0 0
M  V30 6 C -0.0352 3.0073 0.0 0
M  V30 7 C -3.9119 0.7753 0.0 0
M  V30 8 C -2.6197 -1.4567 0.0 0
M  V30 9 O -2.6314 4.511 0.0 0
M  V30 10 C -3.9236 2.279 0.0 0
M  V30 11 N -5.3451 0.3289 0.0 0
M  V30 12 N -5.3569 2.7489 0.0 0
M  V30 13 C -6.2379 1.5506 0.0 0
M  V30 14 C -5.8268 4.1821 0.0 0
M  V30 15 C -7.2952 4.4993 0.0 0
M  V30 16 C -7.7651 5.9325 0.0 0
M  V30 17 O -9.2336 6.2497 0.0 0
M  V30 18 O -6.7783 7.0485 0.0 0
M  V30 END ATOM
M  V30 BEGIN BOND
M  V30 1 2 1 2
M  V30 2 1 2 3
M  V30 3 1 2 4
M  V30 4 1 3 5
M  V30 5 1 3 6
M  V30 6 1 4 7
M  V30 7 1 4 8
M  V30 8 2 5 9
M  V30 9 1 5 10
M  V30 10 1 7 11
M  V30 11 1 10 12
M  V30 12 2 11 13
M  V30 13 1 12 14
M  V30 14 1 14 15
M  V30 15 1 15 16
M  V30 16 2 16 17
M  V30 17 1 16 18
M  V30 18 2 7 10
M  V30 19 1 12 13
M  V30 END BOND
M  V30 END CTAB
M  END
>  <Structure No>
270

>  <Catalog ID>
Z164670588

>  <MW (desalted)>
252.227

>  <ClogP>
-0.432

>  <HBD>
1

>  <TPSA>
95.740

>  <RotBonds>
3

>  <Target>
Serine-protein kinase ATM

>  <fromRegid>
CHEMBL113

>  <Similarity>
0.85

$$$$
Compound 271
Actelion Java MolfileCreator 2.0

  0  0  0  0  0  0              0 V3000
M  V30 BEGIN CTAB
M  V30 COUNTS 18 20 0 0 0
M  V30 BEGIN ATOM
M  V30 1 O 0.0 0.0 0.0 0
M  V30 2 C 0.4491 -1.4184 0.0 0
M  V30 3 N -0.4491 -2.6241 0.0 0
M  V30 4 C 1.8676 -1.8676 0.0 0
M  V30 5 C -1.9621 -2.6122 0.0 0
M  V30 6 C 0.4255 -3.8297 0.0 0
M  V30 7 C 1.8557 -3.3569 0.0 0
M  V30 8 C 3.156 -1.0992 0.0 0
M  V30 9 C -2.7186 -3.9006 0.0 0
M  V30 10 C -2.7186 -1.3002 0.0 0
M  V30 11 O -0.0472 -5.2482 0.0 0
M  V30 12 C 3.1441 -4.1016 0.0 0
M  V30 13 C 4.4444 -1.8321 0.0 0
M  V30 14 C -4.2316 -3.8888 0.0 0
M  V30 15 C -4.2316 -1.2884 0.0 0
M  V30 16 C 4.4326 -3.3333 0.0 0
M  V30 17 N -4.9999 -5.1772 0.0 0
M  V30 18 C -4.9999 -2.5768 0.0 0
M  V30 END ATOM
M  V30 BEGIN BOND
M  V30 1 2 1 2
M  V30 2 1 2 3
M  V30 3 1 2 4
M  V30 4 1 3 5
M  V30 5 1 3 6
M  V30 6 2 4 7
M  V30 7 1 4 8
M  V30 8 2 5 9
M  V30 9 1 5 10
M  V30 10 2 6 11
M  V30 11 1 7 12
M  V30 12 2 8 13
M  V30 13 1 9 14
M  V30 14 2 10 15
M  V30 15 2 12 16
M  V30 16 1 14 17
M  V30 17 2 14 18
M  V30 18 1 6 7
M  V30 19 1 13 16
M  V30 20 1 15 18
M  V30 END BOND
M  V30 END CTAB
M  END
>  <Structure No>
271

>  <Catalog ID>
Z57448306

>  <MW (desalted)>
238.241

>  <ClogP>
1.166

>  <HBD>
1

>  <TPSA>
63.400

>  <RotBonds>
1

>  <Target>
Poly [ADP-ribose] polymerase-1

>  <fromRegid>
CHEMBL611980

>  <Similarity>
0.86

$$$$
Compound 272
Actelion Java MolfileCreator 2.0

  0  0  0  0  0  0              0 V3000
M  V30 BEGIN CTAB
M  V30 COUNTS 18 20 0 0 0
M  V30 BEGIN ATOM
M  V30 1 O 0.0 0.0 0.0 0
M  V30 2 C 0.4489 -1.4178 0.0 0
M  V30 3 N -0.4489 -2.6229 0.0 0
M  V30 4 C 1.8668 -1.8668 0.0 0
M  V30 5 C -1.9613 -2.6111 0.0 0
M  V30 6 C 0.4253 -3.8281 0.0 0
M  V30 7 C 1.8549 -3.3555 0.0 0
M  V30 8 C 3.1546 -1.0988 0.0 0
M  V30 9 C -2.7174 -1.2996 0.0 0
M  V30 10 C -2.7174 -3.899 0.0 0
M  V30 11 O -0.0472 -5.2459 0.0 0
M  V30 12 C 3.1428 -4.0998 0.0 0
M  V30 13 C 4.4425 -1.8313 0.0 0
M  V30 14 C -4.2298 -1.2878 0.0 0
M  V30 15 C -4.2298 -3.8872 0.0 0
M  V30 16 C 4.4307 -3.3318 0.0 0
M  V30 17 C -4.9978 -2.5757 0.0 0
M  V30 18 N -6.5101 -2.5638 0.0 0
M  V30 END ATOM
M  V30 BEGIN BOND
M  V30 1 2 1 2
M  V30 2 1 2 3
M  V30 3 1 2 4
M  V30 4 1 3 5
M  V30 5 1 3 6
M  V30 6 2 4 7
M  V30 7 1 4 8
M  V30 8 2 5 9
M  V30 9 1 5 10
M  V30 10 2 6 11
M  V30 11 1 7 12
M  V30 12 2 8 13
M  V30 13 1 9 14
M  V30 14 2 10 15
M  V30 15 2 12 16
M  V30 16 2 14 17
M  V30 17 1 17 18
M  V30 18 1 6 7
M  V30 19 1 13 16
M  V30 20 1 15 17
M  V30 END BOND
M  V30 END CTAB
M  END
>  <Structure No>
272

>  <Catalog ID>
Z57212890

>  <MW (desalted)>
238.241

>  <ClogP>
1.166

>  <HBD>
1

>  <TPSA>
63.400

>  <RotBonds>
1

>  <Target>
Poly [ADP-ribose] polymerase-1

>  <fromRegid>
CHEMBL611980

>  <Similarity>
0.88

$$$$
Compound 273
Actelion Java MolfileCreator 2.0

  0  0  0  0  0  0              0 V3000
M  V30 BEGIN CTAB
M  V30 COUNTS 19 20 0 0 0
M  V30 BEGIN ATOM
M  V30 1 Cl 0.0 0.0 0.0 0
M  V30 2 O 9.1084 3.6054 0.0 0
M  V30 3 C 9.5591 2.1822 0.0 0
M  V30 4 N 8.6577 0.9725 0.0 0
M  V30 5 C 10.9822 1.7315 0.0 0
M  V30 6 C 9.5353 -0.2371 0.0 0
M  V30 7 C 7.1396 0.9843 0.0 0
M  V30 8 C 10.9704 0.2371 0.0 0
M  V30 9 C 12.275 2.4905 0.0 0
M  V30 10 O 9.0609 -1.6603 0.0 0
M  V30 11 C 6.3687 -0.3083 0.0 0
M  V30 12 C 12.2631 -0.4981 0.0 0
M  V30 13 C 13.5677 1.7434 0.0 0
M  V30 14 C 7.1159 -1.601 0.0 0
M  V30 15 C 4.8507 -0.2964 0.0 0
M  V30 16 C 13.5559 0.2609 0.0 0
M  V30 17 C 6.345 -2.8938 0.0 0
M  V30 18 C 4.0916 -1.5892 0.0 0
M  V30 19 N 4.8269 -2.8819 0.0 0
M  V30 END ATOM
M  V30 BEGIN BOND
M  V30 1 2 2 3
M  V30 2 1 3 4
M  V30 3 1 3 5
M  V30 4 1 4 6
M  V30 5 1 4 7
M  V30 6 2 5 8
M  V30 7 1 5 9
M  V30 8 2 6 10
M  V30 9 1 7 11
M  V30 10 1 8 12
M  V30 11 2 9 13
M  V30 12 1 11 14
M  V30 13 1 11 15
M  V30 14 2 12 16
M  V30 15 1 14 17
M  V30 16 1 15 18
M  V30 17 1 17 19
M  V30 18 1 6 8
M  V30 19 1 13 16
M  V30 20 1 18 19
M  V30 END BOND
M  V30 END CTAB
M  END
>  <Structure No>
273

>  <Catalog ID>
Z594038388

>  <MW (desalted)>
244.289

>  <ClogP>
1.745

>  <HBD>
1

>  <TPSA>
49.410

>  <RotBonds>
2

>  <Target>
Poly [ADP-ribose] polymerase-1

>  <fromRegid>
CHEMBL598088

>  <Similarity>
0.9

$$$$
Compound 274
Actelion Java MolfileCreator 2.0

  0  0  0  0  0  0              0 V3000
M  V30 BEGIN CTAB
M  V30 COUNTS 18 19 0 0 0
M  V30 BEGIN ATOM
M  V30 1 O 0.0 0.0 0.0 0
M  V30 2 C -1.3101 -0.7435 0.0 0
M  V30 3 N -2.6202 0.0236 0.0 0
M  V30 4 C -1.3219 -2.2307 0.0 0
M  V30 5 C -3.9303 -0.7199 0.0 0
M  V30 6 C -2.632 -2.9743 0.0 0
M  V30 7 C -0.0354 -2.9743 0.0 0
M  V30 8 N -5.3703 -0.2478 0.0 0
M  V30 9 C -3.9421 -2.2071 0.0 0
M  V30 10 C -2.6438 -4.4615 0.0 0
M  V30 11 C 1.2511 -2.2071 0.0 0
M  V30 12 N -6.2673 -1.4517 0.0 0
M  V30 13 C -5.8424 1.1921 0.0 0
M  V30 14 C -5.3821 -2.6556 0.0 0
M  V30 15 C 2.5376 -2.9507 0.0 0
M  V30 16 C -5.8542 -4.072 0.0 0
M  V30 17 O 3.8241 -2.1835 0.0 0
M  V30 18 O 2.5258 -4.4379 0.0 0
M  V30 END ATOM
M  V30 BEGIN BOND
M  V30 1 2 1 2
M  V30 2 1 2 3
M  V30 3 1 2 4
M  V30 4 1 3 5
M  V30 5 2 4 6
M  V30 6 1 4 7
M  V30 7 1 5 8
M  V30 8 2 5 9
M  V30 9 1 6 10
M  V30 10 1 7 11
M  V30 11 1 8 12
M  V30 12 1 8 13
M  V30 13 1 9 14
M  V30 14 1 11 15
M  V30 15 1 14 16
M  V30 16 2 15 17
M  V30 17 1 15 18
M  V30 18 1 6 9
M  V30 19 2 12 14
M  V30 END BOND
M  V30 END CTAB
M  END
>  <Structure No>
274

>  <Catalog ID>
Z359302070

>  <MW (desalted)>
249.266

>  <ClogP>
-0.210

>  <HBD>
2

>  <TPSA>
84.220

>  <RotBonds>
3

>  <Target>
Poly [ADP-ribose] polymerase-1

>  <fromRegid>
CHEMBL508796

>  <Similarity>
0.89

$$$$
Compound 275
Actelion Java MolfileCreator 2.0

  0  0  0  0  0  0              0 V3000
M  V30 BEGIN CTAB
M  V30 COUNTS 18 19 0 0 0
M  V30 BEGIN ATOM
M  V30 1 S 0.0 0.0 0.0 0
M  V30 2 C 1.2849 0.7662 0.0 0 CFG=2
M  V30 3 C -1.3085 0.7662 0.0 0
M  V30 4 C 2.5699 0.0235 0.0 0
M  V30 5 C 1.2731 2.2752 0.0 0
M  V30 6 C -2.617 0.0235 0.0 0
M  V30 7 O 3.8548 0.7898 0.0 0
M  V30 8 O 2.5581 -1.4617 0.0 0
M  V30 9 N -2.6288 -1.4617 0.0 0
M  V30 10 N -3.9256 0.7898 0.0 0
M  V30 11 C -3.9374 -2.1926 0.0 0
M  V30 12 C -5.2341 0.0471 0.0 0
M  V30 13 C -5.2459 -1.4382 0.0 0
M  V30 14 C -3.9492 -3.678 0.0 0
M  V30 15 O -6.5427 0.8134 0.0 0
M  V30 16 C -6.5545 -2.1691 0.0 0
M  V30 17 C -5.2577 -4.4207 0.0 0
M  V30 18 C -6.5662 -3.6544 0.0 0
M  V30 END ATOM
M  V30 BEGIN BOND
M  V30 1 1 2 1 CFG=1
M  V30 2 1 1 3
M  V30 3 1 2 4
M  V30 4 1 2 5
M  V30 5 1 3 6
M  V30 6 2 4 7
M  V30 7 1 4 8
M  V30 8 2 6 9
M  V30 9 1 6 10
M  V30 10 1 9 11
M  V30 11 1 10 12
M  V30 12 2 11 13
M  V30 13 1 11 14
M  V30 14 2 12 15
M  V30 15 1 13 16
M  V30 16 2 14 17
M  V30 17 2 16 18
M  V30 18 1 12 13
M  V30 19 1 17 18
M  V30 END BOND
M  V30 BEGIN COLLECTION
M  V30 MDLV30/STERAC1 ATOMS=(1 2)
M  V30 END COLLECTION
M  V30 END CTAB
M  END
>  <Structure No>
275

>  <Catalog ID>
Z277167244

>  <MW (desalted)>
264.300

>  <ClogP>
0.545

>  <HBD>
2

>  <TPSA>
78.760

>  <RotBonds>
4

>  <Target>
parp15, parp1

>  <fromRegid>


>  <Similarity>


$$$$
Compound 276
Actelion Java MolfileCreator 2.0

  0  0  0  0  0  0              0 V3000
M  V30 BEGIN CTAB
M  V30 COUNTS 18 19 0 0 0
M  V30 BEGIN ATOM
M  V30 1 S 0.0 0.0 0.0 0
M  V30 2 C 1.2908 0.7697 0.0 0
M  V30 3 C -1.3145 0.7697 0.0 0
M  V30 4 C 2.5816 0.0236 0.0 0
M  V30 5 C -2.629 0.0236 0.0 0
M  V30 6 N 3.8725 0.7934 0.0 0
M  V30 7 N 2.5698 -1.4684 0.0 0
M  V30 8 C -3.9435 0.7934 0.0 0
M  V30 9 C 5.1633 0.0473 0.0 0
M  V30 10 C 3.8606 -2.2027 0.0 0
M  V30 11 O -3.9554 2.3093 0.0 0
M  V30 12 O -5.2581 0.0473 0.0 0
M  V30 13 C 5.1515 -1.4447 0.0 0
M  V30 14 C 6.4542 0.8171 0.0 0
M  V30 15 O 3.8488 -3.6948 0.0 0
M  V30 16 C 6.4423 -2.179 0.0 0
M  V30 17 C 7.745 0.071 0.0 0
M  V30 18 C 7.7332 -1.4211 0.0 0
M  V30 END ATOM
M  V30 BEGIN BOND
M  V30 1 1 1 2
M  V30 2 1 1 3
M  V30 3 1 2 4
M  V30 4 1 3 5
M  V30 5 2 4 6
M  V30 6 1 4 7
M  V30 7 1 5 8
M  V30 8 1 6 9
M  V30 9 1 7 10
M  V30 10 2 8 11
M  V30 11 1 8 12
M  V30 12 2 9 13
M  V30 13 1 9 14
M  V30 14 2 10 15
M  V30 15 1 13 16
M  V30 16 2 14 17
M  V30 17 2 16 18
M  V30 18 1 10 13
M  V30 19 1 17 18
M  V30 END BOND
M  V30 END CTAB
M  END
>  <Structure No>
276

>  <Catalog ID>
Z54837692

>  <MW (desalted)>
264.300

>  <ClogP>
0.565

>  <HBD>
2

>  <TPSA>
78.760

>  <RotBonds>
5

>  <Target>
parp1

>  <fromRegid>


>  <Similarity>


$$$$
Compound 277
Actelion Java MolfileCreator 2.0

  0  0  0  0  0  0              0 V3000
M  V30 BEGIN CTAB
M  V30 COUNTS 18 21 0 0 0
M  V30 BEGIN ATOM
M  V30 1 N 0.0 0.0 0.0 0
M  V30 2 N -0.9009 -1.2091 0.0 0
M  V30 3 C 1.4225 -0.4504 0.0 0
M  V30 4 C -0.0237 -2.4183 0.0 0
M  V30 5 C 1.4107 -1.9441 0.0 0
M  V30 6 C 2.7147 0.32 0.0 0
M  V30 7 C -0.4978 -3.8409 0.0 0
M  V30 8 C 2.7028 -2.691 0.0 0
M  V30 9 C 4.0068 -0.4267 0.0 0
M  V30 10 N 0.3793 -5.0501 0.0 0
M  V30 11 N -1.9441 -4.2914 0.0 0
M  V30 12 C 3.995 -1.9204 0.0 0
M  V30 13 C -0.5216 -6.2592 0.0 0
M  V30 14 C -1.956 -5.785 0.0 0
M  V30 15 C -0.2252 -7.7174 0.0 0
M  V30 16 C -3.0822 -6.7808 0.0 0
M  V30 17 C -1.3514 -8.7132 0.0 0
M  V30 18 C -2.7858 -8.239 0.0 0
M  V30 END ATOM
M  V30 BEGIN BOND
M  V30 1 1 1 2
M  V30 2 2 1 3
M  V30 3 1 2 4
M  V30 4 1 3 5
M  V30 5 1 3 6
M  V30 6 1 4 7
M  V30 7 1 5 8
M  V30 8 2 6 9
M  V30 9 2 7 10
M  V30 10 1 7 11
M  V30 11 2 8 12
M  V30 12 1 10 13
M  V30 13 1 11 14
M  V30 14 1 13 15
M  V30 15 1 14 16
M  V30 16 2 15 17
M  V30 17 2 16 18
M  V30 18 2 4 5
M  V30 19 1 9 12
M  V30 20 2 13 14
M  V30 21 1 17 18
M  V30 END BOND
M  V30 END CTAB
M  END
>  <Structure No>
277

>  <Catalog ID>
Z234897249

>  <MW (desalted)>
234.256

>  <ClogP>
3.563

>  <HBD>
2

>  <TPSA>
57.360

>  <RotBonds>
1

>  <Target>
Serine/threonine-protein kinase Chk2

>  <fromRegid>
CHEMBL1970104

>  <Similarity>
0.88

$$$$
Compound 278
Actelion Java MolfileCreator 2.0

  0  0  0  0  0  0              0 V3000
M  V30 BEGIN CTAB
M  V30 COUNTS 18 18 0 0 0
M  V30 BEGIN ATOM
M  V30 1 O 0.0 0.0 0.0 0
M  V30 2 C -0.0118 -1.4959 0.0 0
M  V30 3 N -1.3297 -2.2438 0.0 0
M  V30 4 C 1.2822 -2.2438 0.0 0
M  V30 5 C -2.6475 -1.4721 0.0 0
M  V30 6 C 2.5763 -1.4721 0.0 0
M  V30 7 C 1.2703 -3.7398 0.0 0
M  V30 8 C 3.8703 -2.2201 0.0 0
M  V30 9 C 2.5644 -4.4758 0.0 0
M  V30 10 C 3.8585 -3.716 0.0 0
M  V30 11 N 5.1526 -4.4521 0.0 0
M  V30 12 C 6.4467 -3.6923 0.0 0
M  V30 13 O 6.4348 -2.1726 0.0 0
M  V30 14 C 7.7407 -4.4284 0.0 0
M  V30 15 C 9.0348 -3.6685 0.0 0
M  V30 16 C 10.3289 -4.4046 0.0 0
M  V30 17 O 11.623 -3.6448 0.0 0
M  V30 18 O 10.3171 -5.9005 0.0 0
M  V30 END ATOM
M  V30 BEGIN BOND
M  V30 1 2 1 2
M  V30 2 1 2 3
M  V30 3 1 2 4
M  V30 4 1 3 5
M  V30 5 2 4 6
M  V30 6 1 4 7
M  V30 7 1 6 8
M  V30 8 2 7 9
M  V30 9 2 8 10
M  V30 10 1 10 11
M  V30 11 1 11 12
M  V30 12 2 12 13
M  V30 13 1 12 14
M  V30 14 1 14 15
M  V30 15 1 15 16
M  V30 16 2 16 17
M  V30 17 1 16 18
M  V30 18 1 9 10
M  V30 END BOND
M  V30 END CTAB
M  END
>  <Structure No>
278

>  <Catalog ID>
Z90427257

>  <MW (desalted)>
250.251

>  <ClogP>
-0.043

>  <HBD>
3

>  <TPSA>
95.500

>  <RotBonds>
5

>  <Target>
Poly [ADP-ribose] polymerase-1

>  <fromRegid>
CHEMBL3414756

>  <Similarity>
0.89

$$$$
Compound 279
Actelion Java MolfileCreator 2.0

  0  0  0  0  0  0              0 V3000
M  V30 BEGIN CTAB
M  V30 COUNTS 18 19 0 0 0
M  V30 BEGIN ATOM
M  V30 1 O 0.0 0.0 0.0 0
M  V30 2 C 1.4796 -0.142 0.0 0
M  V30 3 N 2.0833 -1.5033 0.0 0
M  V30 4 C 2.3555 1.089 0.0 0
M  V30 5 C 1.1837 -2.7106 0.0 0
M  V30 6 C 3.5629 -1.6453 0.0 0
M  V30 7 N 3.847 1.1008 0.0 0
M  V30 8 C 1.882 2.5331 0.0 0
M  V30 9 C 1.7874 -4.0719 0.0 0 CFG=2
M  V30 10 C 4.1666 -3.0066 0.0 0
M  V30 11 C 4.2968 2.5449 0.0 0
M  V30 12 C 3.0894 3.4327 0.0 0
M  V30 13 C 3.267 -4.214 0.0 0
M  V30 14 C 0.8877 -5.2793 0.0 0
M  V30 15 C 3.0776 4.9479 0.0 0
M  V30 16 O 1.4914 -6.6406 0.0 0
M  V30 17 O 1.7637 5.7054 0.0 0
M  V30 18 C 4.3678 5.7054 0.0 0
M  V30 END ATOM
M  V30 BEGIN BOND
M  V30 1 2 1 2
M  V30 2 1 2 3
M  V30 3 1 2 4
M  V30 4 1 3 5
M  V30 5 1 3 6
M  V30 6 1 4 7
M  V30 7 2 4 8
M  V30 8 1 5 9
M  V30 9 1 6 10
M  V30 10 1 7 11
M  V30 11 1 8 12
M  V30 12 1 9 13
M  V30 13 1 9 14 CFG=3
M  V30 14 1 12 15
M  V30 15 1 14 16
M  V30 16 2 15 17
M  V30 17 1 15 18
M  V30 18 1 10 13
M  V30 19 2 11 12
M  V30 END BOND
M  V30 BEGIN COLLECTION
M  V30 MDLV30/STERAC1 ATOMS=(1 9)
M  V30 END COLLECTION
M  V30 END CTAB
M  END
>  <Structure No>
279

>  <Catalog ID>
Z234897573

>  <MW (desalted)>
250.294

>  <ClogP>
-0.990

>  <HBD>
2

>  <TPSA>
73.400

>  <RotBonds>
3

>  <Target>
CHK1

>  <fromRegid>


>  <Similarity>


$$$$
Compound 280
Actelion Java MolfileCreator 2.0

  0  0  0  0  0  0              0 V3000
M  V30 BEGIN CTAB
M  V30 COUNTS 19 19 0 0 0
M  V30 BEGIN ATOM
M  V30 1 Cl 0.0 0.0 0.0 0
M  V30 2 O 3.3137 -0.6627 0.0 0
M  V30 3 C 4.6037 0.0946 0.0 0
M  V30 4 N 5.8937 -0.639 0.0 0
M  V30 5 C 4.5919 1.6095 0.0 0
M  V30 6 C 5.8819 -2.1302 0.0 0
M  V30 7 C 7.1837 0.1183 0.0 0
M  V30 8 C 5.8819 2.3669 0.0 0
M  V30 9 C 3.2782 2.3669 0.0 0
M  V30 10 C 7.1719 -2.8758 0.0 0
M  V30 11 C 4.5682 -2.8758 0.0 0
M  V30 12 C 5.87 3.8818 0.0 0
M  V30 13 C 7.1719 1.6332 0.0 0
M  V30 14 C 3.2664 3.8818 0.0 0
M  V30 15 C 7.16 -4.367 0.0 0
M  V30 16 C 4.5564 -4.367 0.0 0
M  V30 17 C 4.5564 4.6392 0.0 0
M  V30 18 C 7.16 4.6392 0.0 0
M  V30 19 N 5.8464 -5.1126 0.0 0
M  V30 END ATOM
M  V30 BEGIN BOND
M  V30 1 2 2 3
M  V30 2 1 3 4
M  V30 3 1 3 5
M  V30 4 1 4 6
M  V30 5 1 4 7
M  V30 6 2 5 8
M  V30 7 1 5 9
M  V30 8 1 6 10
M  V30 9 1 6 11
M  V30 10 1 8 12
M  V30 11 1 8 13
M  V30 12 2 9 14
M  V30 13 1 10 15
M  V30 14 1 11 16
M  V30 15 2 12 17
M  V30 16 1 12 18
M  V30 17 1 15 19
M  V30 18 1 14 17
M  V30 19 1 16 19
M  V30 END BOND
M  V30 END CTAB
M  END
>  <Structure No>
280

>  <Catalog ID>
Z1456278017

>  <MW (desalted)>
246.348

>  <ClogP>
1.167

>  <HBD>
1

>  <TPSA>
32.340

>  <RotBonds>
2

>  <Target>
Poly [ADP-ribose] polymerase-1

>  <fromRegid>
CHEMBL597890

>  <Similarity>
0.9

$$$$
Compound 281
Actelion Java MolfileCreator 2.0

  0  0  0  0  0  0              0 V3000
M  V30 BEGIN CTAB
M  V30 COUNTS 19 19 0 0 0
M  V30 BEGIN ATOM
M  V30 1 Cl 0.0 0.0 0.0 0
M  V30 2 O 5.4874 -0.6622 0.0 0
M  V30 3 C 6.7765 0.0946 0.0 0
M  V30 4 N 8.0655 -0.6386 0.0 0
M  V30 5 C 6.7646 1.6083 0.0 0
M  V30 6 C 8.0537 -2.1287 0.0 0
M  V30 7 C 9.3546 0.1182 0.0 0
M  V30 8 C 8.0537 2.3652 0.0 0
M  V30 9 C 5.4519 2.3652 0.0 0
M  V30 10 C 9.3428 -2.8738 0.0 0
M  V30 11 C 6.741 -2.8738 0.0 0
M  V30 12 C 8.0419 3.879 0.0 0
M  V30 13 C 9.3428 1.632 0.0 0
M  V30 14 C 5.4401 3.879 0.0 0
M  V30 15 C 9.331 -4.3639 0.0 0
M  V30 16 C 6.7292 -4.3639 0.0 0
M  V30 17 C 6.7292 4.6359 0.0 0
M  V30 18 C 4.1274 4.6359 0.0 0
M  V30 19 N 8.0182 -5.1089 0.0 0
M  V30 END ATOM
M  V30 BEGIN BOND
M  V30 1 2 2 3
M  V30 2 1 3 4
M  V30 3 1 3 5
M  V30 4 1 4 6
M  V30 5 1 4 7
M  V30 6 2 5 8
M  V30 7 1 5 9
M  V30 8 1 6 10
M  V30 9 1 6 11
M  V30 10 1 8 12
M  V30 11 1 8 13
M  V30 12 2 9 14
M  V30 13 1 10 15
M  V30 14 1 11 16
M  V30 15 2 12 17
M  V30 16 1 14 18
M  V30 17 1 15 19
M  V30 18 1 14 17
M  V30 19 1 16 19
M  V30 END BOND
M  V30 END CTAB
M  END
>  <Structure No>
281

>  <Catalog ID>
Z1456280676

>  <MW (desalted)>
246.348

>  <ClogP>
1.217

>  <HBD>
1

>  <TPSA>
32.340

>  <RotBonds>
2

>  <Target>
Poly [ADP-ribose] polymerase-1

>  <fromRegid>
CHEMBL597890

>  <Similarity>
0.88

$$$$
Compound 282
Actelion Java MolfileCreator 2.0

  0  0  0  0  0  0              0 V3000
M  V30 BEGIN CTAB
M  V30 COUNTS 18 20 0 0 0
M  V30 BEGIN ATOM
M  V30 1 Cl 0.0 0.0 0.0 0
M  V30 2 C -1.3089 -0.7311 0.0 0
M  V30 3 C -1.3207 -2.2169 0.0 0
M  V30 4 C -2.6179 0.0235 0.0 0
M  V30 5 C -2.6297 -2.9599 0.0 0
M  V30 6 C -3.9269 -0.7075 0.0 0
M  V30 7 C -3.9386 -2.1934 0.0 0
M  V30 8 C -5.2476 -2.9363 0.0 0
M  V30 9 N -5.2594 -4.4221 0.0 0
M  V30 10 C -6.5684 -5.1533 0.0 0
M  V30 11 C -7.8773 -4.3986 0.0 0
M  V30 12 C -6.5802 -6.6391 0.0 0
M  V30 13 C -9.1863 -5.1297 0.0 0
M  V30 14 C -7.8891 -7.3703 0.0 0
M  V30 15 N -10.625 -4.658 0.0 0
M  V30 16 C -9.1981 -6.6155 0.0 0
M  V30 17 N -11.5212 -5.8608 0.0 0
M  V30 18 C -10.6368 -7.0637 0.0 0
M  V30 END ATOM
M  V30 BEGIN BOND
M  V30 1 1 1 2
M  V30 2 2 2 3
M  V30 3 1 2 4
M  V30 4 1 3 5
M  V30 5 2 4 6
M  V30 6 2 5 7
M  V30 7 1 7 8
M  V30 8 1 8 9
M  V30 9 1 9 10
M  V30 10 2 10 11
M  V30 11 1 10 12
M  V30 12 1 11 13
M  V30 13 2 12 14
M  V30 14 1 13 15
M  V30 15 2 13 16
M  V30 16 1 15 17
M  V30 17 1 16 18
M  V30 18 1 6 7
M  V30 19 1 14 16
M  V30 20 2 17 18
M  V30 END BOND
M  V30 END CTAB
M  END
>  <Structure No>
282

>  <Catalog ID>
Z138543234

>  <MW (desalted)>
257.718

>  <ClogP>
3.973

>  <HBD>
2

>  <TPSA>
40.710

>  <RotBonds>
3

>  <Target>
Serine/threonine-protein kinase Chk2

>  <fromRegid>
CHEMBL1972489

>  <Similarity>
0.86

$$$$
Compound 283
Actelion Java MolfileCreator 2.0

  0  0  0  0  0  0              0 V3000
M  V30 BEGIN CTAB
M  V30 COUNTS 18 19 0 0 0
M  V30 BEGIN ATOM
M  V30 1 F 0.0 0.0 0.0 0
M  V30 2 C 1.2961 -0.7491 0.0 0
M  V30 3 C 2.5923 0.0118 0.0 0
M  V30 4 C 1.2843 -2.2475 0.0 0
M  V30 5 C 3.8885 -0.7372 0.0 0
M  V30 6 C 2.5805 -2.9967 0.0 0
M  V30 7 C 3.8767 -2.2356 0.0 0
M  V30 8 C 5.1728 -2.9848 0.0 0
M  V30 9 O 5.161 -4.4831 0.0 0
M  V30 10 N 6.469 -2.2118 0.0 0
M  V30 11 C 7.7652 -2.961 0.0 0
M  V30 12 C 9.0614 -2.188 0.0 0
M  V30 13 C 10.3576 -2.9372 0.0 0
M  V30 14 C 11.6538 -2.1642 0.0 0
M  V30 15 C 10.3457 -4.4356 0.0 0
M  V30 16 C 12.95 -2.9134 0.0 0
M  V30 17 C 11.6419 -5.1728 0.0 0
M  V30 18 C 12.9381 -4.4118 0.0 0
M  V30 END ATOM
M  V30 BEGIN BOND
M  V30 1 1 1 2
M  V30 2 2 2 3
M  V30 3 1 2 4
M  V30 4 1 3 5
M  V30 5 2 4 6
M  V30 6 2 5 7
M  V30 7 1 7 8
M  V30 8 2 8 9
M  V30 9 1 8 10
M  V30 10 1 10 11
M  V30 11 1 11 12
M  V30 12 1 12 13
M  V30 13 2 13 14
M  V30 14 1 13 15
M  V30 15 1 14 16
M  V30 16 2 15 17
M  V30 17 2 16 18
M  V30 18 1 6 7
M  V30 19 1 17 18
M  V30 END BOND
M  V30 END CTAB
M  END
>  <Structure No>
283

>  <Catalog ID>
Z27761589

>  <MW (desalted)>
243.276

>  <ClogP>
3.303

>  <HBD>
1

>  <TPSA>
29.100

>  <RotBonds>
4

>  <Target>
Poly [ADP-ribose] polymerase-1

>  <fromRegid>
CHEMBL3629672

>  <Similarity>
0.85

$$$$
Compound 284
Actelion Java MolfileCreator 2.0

  0  0  0  0  0  0              0 V3000
M  V30 BEGIN CTAB
M  V30 COUNTS 18 20 0 0 0
M  V30 BEGIN ATOM
M  V30 1 S 0.0 0.0 0.0 0
M  V30 2 C -0.8944 1.224 0.0 0
M  V30 3 C 1.4123 0.4707 0.0 0
M  V30 4 N -0.0235 2.4481 0.0 0
M  V30 5 N -2.401 1.2358 0.0 0
M  V30 6 C 1.4005 1.9773 0.0 0
M  V30 7 C 2.6952 -0.2707 0.0 0
M  V30 8 C -3.1542 -0.047 0.0 0
M  V30 9 C 2.6834 2.7423 0.0 0
M  V30 10 C 3.9781 0.4943 0.0 0
M  V30 11 C -4.6608 -0.0353 0.0 0
M  V30 12 C 3.9664 2.0126 0.0 0
M  V30 13 C -5.4258 -1.3182 0.0 0
M  V30 14 C -5.4258 1.2711 0.0 0
M  V30 15 C -6.9323 -1.3064 0.0 0
M  V30 16 C -6.9323 1.2829 0.0 0
M  V30 17 C -7.6974 0.0 0.0 0
M  V30 18 C -7.6974 -2.5893 0.0 0
M  V30 END ATOM
M  V30 BEGIN BOND
M  V30 1 1 1 2
M  V30 2 1 1 3
M  V30 3 2 2 4
M  V30 4 1 2 5
M  V30 5 2 3 6
M  V30 6 1 3 7
M  V30 7 1 5 8
M  V30 8 1 6 9
M  V30 9 2 7 10
M  V30 10 1 8 11
M  V30 11 2 9 12
M  V30 12 2 11 13
M  V30 13 1 11 14
M  V30 14 1 13 15
M  V30 15 2 14 16
M  V30 16 2 15 17
M  V30 17 1 15 18
M  V30 18 1 4 6
M  V30 19 1 10 12
M  V30 20 1 16 17
M  V30 END BOND
M  V30 END CTAB
M  END
>  <Structure No>
284

>  <Catalog ID>
Z304821554

>  <MW (desalted)>
254.350

>  <ClogP>
4.574

>  <HBD>
1

>  <TPSA>
24.920

>  <RotBonds>
3

>  <Target>
Serine/threonine-protein kinase Chk2

>  <fromRegid>
CHEMBL1983534

>  <Similarity>
0.86

$$$$
Compound 285
Actelion Java MolfileCreator 2.0

  0  0  0  0  0  0              0 V3000
M  V30 BEGIN CTAB
M  V30 COUNTS 18 20 0 0 0
M  V30 BEGIN ATOM
M  V30 1 S 0.0 0.0 0.0 0
M  V30 2 C 1.4161 -0.4484 0.0 0
M  V30 3 C -0.8969 -1.2037 0.0 0
M  V30 4 C 2.7025 0.3068 0.0 0
M  V30 5 C 1.4043 -1.9354 0.0 0
M  V30 6 C -0.0236 -2.4074 0.0 0
M  V30 7 O 2.6907 1.8174 0.0 0
M  V30 8 N 3.9888 -0.4248 0.0 0
M  V30 9 N 2.6907 -2.6671 0.0 0
M  V30 10 C 1.3807 2.5727 0.0 0
M  V30 11 C 3.977 -1.9118 0.0 0
M  V30 12 C 1.3689 4.0832 0.0 0
M  V30 13 C 0.0708 1.841 0.0 0
M  V30 14 C 0.059 4.8503 0.0 0
M  V30 15 C -1.2391 2.5963 0.0 0
M  V30 16 C -1.2509 4.1068 0.0 0
M  V30 17 C -2.5609 4.8739 0.0 0
M  V30 18 N -3.8708 4.1304 0.0 0
M  V30 END ATOM
M  V30 BEGIN BOND
M  V30 1 1 1 2
M  V30 2 1 1 3
M  V30 3 2 2 4
M  V30 4 1 2 5
M  V30 5 2 3 6
M  V30 6 1 4 7
M  V30 7 1 4 8
M  V30 8 2 5 9
M  V30 9 1 7 10
M  V30 10 2 8 11
M  V30 11 2 10 12
M  V30 12 1 10 13
M  V30 13 1 12 14
M  V30 14 2 13 15
M  V30 15 2 14 16
M  V30 16 1 16 17
M  V30 17 1 17 18
M  V30 18 1 5 6
M  V30 19 1 9 11
M  V30 20 1 15 16
M  V30 END BOND
M  V30 END CTAB
M  END
>  <Structure No>
285

>  <Catalog ID>
Z851012766

>  <MW (desalted)>
257.311

>  <ClogP>
2.146

>  <HBD>
1

>  <TPSA>
61.030

>  <RotBonds>
3

>  <Target>
CHK2

>  <fromRegid>


>  <Similarity>


$$$$
Compound 286
Actelion Java MolfileCreator 2.0

  0  0  0  0  0  0              0 V3000
M  V30 BEGIN CTAB
M  V30 COUNTS 18 20 0 0 0
M  V30 BEGIN ATOM
M  V30 1 O 0.0 0.0 0.0 0
M  V30 2 C -1.3093 0.7549 0.0 0
M  V30 3 N -1.3211 2.2647 0.0 0
M  V30 4 C -2.6186 0.0235 0.0 0
M  V30 5 C -0.0353 3.0314 0.0 0
M  V30 6 C -3.9279 0.7785 0.0 0
M  V30 7 C -2.6304 -1.4626 0.0 0
M  V30 8 C -0.0471 4.5413 0.0 0
M  V30 9 C 1.2503 2.2883 0.0 0
M  V30 10 C -5.2372 0.0471 0.0 0
M  V30 11 C -3.9397 -2.1939 0.0 0
M  V30 12 C 1.2385 5.2962 0.0 0
M  V30 13 C 2.536 3.055 0.0 0
M  V30 14 N -6.6763 0.519 0.0 0
M  V30 15 C -5.249 -1.439 0.0 0
M  V30 16 C 2.5242 4.5648 0.0 0
M  V30 17 N -7.5727 -0.6841 0.0 0
M  V30 18 C -6.688 -1.8872 0.0 0
M  V30 END ATOM
M  V30 BEGIN BOND
M  V30 1 2 1 2
M  V30 2 1 2 3
M  V30 3 1 2 4
M  V30 4 1 3 5
M  V30 5 2 4 6
M  V30 6 1 4 7
M  V30 7 2 5 8
M  V30 8 1 5 9
M  V30 9 1 6 10
M  V30 10 2 7 11
M  V30 11 1 8 12
M  V30 12 2 9 13
M  V30 13 1 10 14
M  V30 14 2 10 15
M  V30 15 2 12 16
M  V30 16 1 14 17
M  V30 17 1 15 18
M  V30 18 1 11 15
M  V30 19 1 13 16
M  V30 20 2 17 18
M  V30 END BOND
M  V30 END CTAB
M  END
>  <Structure No>
286

>  <Catalog ID>
Z241176844

>  <MW (desalted)>
237.257

>  <ClogP>
2.784

>  <HBD>
2

>  <TPSA>
57.780

>  <RotBonds>
2

>  <Target>
Serine/threonine-protein kinase Chk2

>  <fromRegid>
CHEMBL1973808

>  <Similarity>
0.87

$$$$
Compound 287
Actelion Java MolfileCreator 2.0

  0  0  0  0  0  0              0 V3000
M  V30 BEGIN CTAB
M  V30 COUNTS 18 20 0 0 0
M  V30 BEGIN ATOM
M  V30 1 O 0.0 0.0 0.0 0
M  V30 2 C 1.2884 -0.7328 0.0 0
M  V30 3 O 2.5768 0.0236 0.0 0
M  V30 4 C 1.2766 -2.2222 0.0 0
M  V30 5 C -0.0354 -2.9551 0.0 0
M  V30 6 C 2.565 -2.9551 0.0 0
M  V30 7 N -1.4775 -2.4823 0.0 0
M  V30 8 C -0.0472 -4.4445 0.0 0
M  V30 9 C 2.5532 -4.4445 0.0 0
M  V30 10 C -2.3759 -3.688 0.0 0
M  V30 11 N -1.4893 -4.8937 0.0 0
M  V30 12 C 1.2411 -5.1774 0.0 0
M  V30 13 C -3.8889 -3.6762 0.0 0
M  V30 14 C -4.6454 -4.9646 0.0 0
M  V30 15 C -4.6454 -2.3641 0.0 0
M  V30 16 C -6.1585 -4.9528 0.0 0
M  V30 17 C -6.1585 -2.3523 0.0 0
M  V30 18 C -6.915 -3.6407 0.0 0
M  V30 END ATOM
M  V30 BEGIN BOND
M  V30 1 2 1 2
M  V30 2 1 2 3
M  V30 3 1 2 4
M  V30 4 2 4 5
M  V30 5 1 4 6
M  V30 6 1 5 7
M  V30 7 1 5 8
M  V30 8 2 6 9
M  V30 9 2 7 10
M  V30 10 1 8 11
M  V30 11 2 8 12
M  V30 12 1 10 13
M  V30 13 2 13 14
M  V30 14 1 13 15
M  V30 15 1 14 16
M  V30 16 2 15 17
M  V30 17 2 16 18
M  V30 18 1 9 12
M  V30 19 1 10 11
M  V30 20 1 17 18
M  V30 END BOND
M  V30 END CTAB
M  END
>  <Structure No>
287

>  <Catalog ID>
Z1065585448

>  <MW (desalted)>
238.241

>  <ClogP>
3.731

>  <HBD>
2

>  <TPSA>
65.980

>  <RotBonds>
2

>  <Target>
Poly [ADP-ribose] polymerase-1

>  <fromRegid>
CHEMBL336859

>  <Similarity>
0.92

$$$$
Compound 288
Actelion Java MolfileCreator 2.0

  0  0  0  0  0  0              0 V3000
M  V30 BEGIN CTAB
M  V30 COUNTS 19 20 0 0 0
M  V30 BEGIN ATOM
M  V30 1 Cl 0.0 0.0 0.0 0
M  V30 2 O 10.1084 3.3065 0.0 0
M  V30 3 C 11.3956 2.5625 0.0 0
M  V30 4 O 12.6828 3.3183 0.0 0
M  V30 5 C 11.3838 1.0746 0.0 0
M  V30 6 C 10.073 0.3424 0.0 0
M  V30 7 C 12.671 0.3424 0.0 0
M  V30 8 N 8.6323 0.8148 0.0 0
M  V30 9 C 10.0612 -1.1454 0.0 0
M  V30 10 C 12.6592 -1.1454 0.0 0
M  V30 11 C 7.7348 -0.3896 0.0 0
M  V30 12 N 8.6205 -1.5942 0.0 0
M  V30 13 C 11.3484 -1.8894 0.0 0
M  V30 14 C 6.2233 -0.3778 0.0 0
M  V30 15 C 5.4557 0.9329 0.0 0
M  V30 16 C 5.4557 -1.665 0.0 0
M  V30 17 N 3.9442 0.9447 0.0 0
M  V30 18 C 3.9442 -1.6532 0.0 0
M  V30 19 C 3.1884 -0.3424 0.0 0
M  V30 END ATOM
M  V30 BEGIN BOND
M  V30 1 2 2 3
M  V30 2 1 3 4
M  V30 3 1 3 5
M  V30 4 2 5 6
M  V30 5 1 5 7
M  V30 6 1 6 8
M  V30 7 1 6 9
M  V30 8 2 7 10
M  V30 9 2 8 11
M  V30 10 1 9 12
M  V30 11 2 9 13
M  V30 12 1 11 14
M  V30 13 2 14 15
M  V30 14 1 14 16
M  V30 15 1 15 17
M  V30 16 2 16 18
M  V30 17 2 17 19
M  V30 18 1 10 13
M  V30 19 1 11 12
M  V30 20 1 18 19
M  V30 END BOND
M  V30 END CTAB
M  END
>  <Structure No>
288

>  <Catalog ID>
Z2895972210

>  <MW (desalted)>
239.229

>  <ClogP>
2.325

>  <HBD>
2

>  <TPSA>
78.870

>  <RotBonds>
2

>  <Target>
Poly [ADP-ribose] polymerase-1

>  <fromRegid>
CHEMBL336859

>  <Similarity>
0.85

$$$$
Compound 289
Actelion Java MolfileCreator 2.0

  0  0  0  0  0  0              0 V3000
M  V30 BEGIN CTAB
M  V30 COUNTS 20 20 0 0 0
M  V30 BEGIN ATOM
M  V30 1 Cl 0.0 0.0 0.0 0
M  V30 2 Cl 3.5816 0.0942 0.0 0
M  V30 3 O 0.2827 -9.6138 0.0 0
M  V30 4 C 0.2709 -8.1057 0.0 0
M  V30 5 N -1.0367 -7.3517 0.0 0
M  V30 6 C 1.5551 -7.3517 0.0 0
M  V30 7 C -1.0485 -5.8437 0.0 0
M  V30 8 C 1.5433 -5.8437 0.0 0
M  V30 9 C 2.7097 -8.2707 0.0 0
M  V30 10 N 0.2356 -5.0896 0.0 0
M  V30 11 N -2.3563 -5.0896 0.0 0
M  V30 12 C 2.698 -4.9011 0.0 0
M  V30 13 C 4.1589 -7.929 0.0 0
M  V30 14 C -3.664 -5.8201 0.0 0
M  V30 15 C -2.3681 -3.5816 0.0 0
M  V30 16 C 4.1471 -5.2192 0.0 0
M  V30 17 C 4.7951 -6.5741 0.0 0
M  V30 18 C -4.9718 -5.0661 0.0 0
M  V30 19 C -3.6758 -2.8275 0.0 0
M  V30 20 N -4.9836 -3.558 0.0 0
M  V30 END ATOM
M  V30 BEGIN BOND
M  V30 1 2 3 4
M  V30 2 1 4 5
M  V30 3 1 4 6
M  V30 4 1 5 7
M  V30 5 2 6 8
M  V30 6 1 6 9
M  V30 7 2 7 10
M  V30 8 1 7 11
M  V30 9 1 8 12
M  V30 10 1 9 13
M  V30 11 1 11 14
M  V30 12 1 11 15
M  V30 13 1 12 16
M  V30 14 1 13 17
M  V30 15 1 14 18
M  V30 16 1 15 19
M  V30 17 1 18 20
M  V30 18 1 8 10
M  V30 19 1 16 17
M  V30 20 1 19 20
M  V30 END BOND
M  V30 END CTAB
M  END
>  <Structure No>
289

>  <Catalog ID>
Z2961198423

>  <MW (desalted)>
248.324

>  <ClogP>
0.940

>  <HBD>
2

>  <TPSA>
56.730

>  <RotBonds>
1

>  <Target>
Poly [ADP-ribose] polymerase-1

>  <fromRegid>
CHEMBL3593716

>  <Similarity>
0.98

$$$$
Compound 290
Actelion Java MolfileCreator 2.0

  0  0  0  0  0  0              0 V3000
M  V30 BEGIN CTAB
M  V30 COUNTS 18 20 0 0 0
M  V30 BEGIN ATOM
M  V30 1 O 0.0 0.0 0.0 0
M  V30 2 C 1.4928 0.0118 0.0 0
M  V30 3 C -0.7701 -1.2914 0.0 0
M  V30 4 C 2.2393 -1.2796 0.0 0
M  V30 5 C 2.2393 1.3269 0.0 0
M  V30 6 N 1.4691 -2.571 0.0 0
M  V30 7 C 3.7321 -1.2677 0.0 0
M  V30 8 C 3.7321 1.3388 0.0 0
M  V30 9 C 4.4667 0.0473 0.0 0
M  V30 10 C 5.9596 0.0592 0.0 0
M  V30 11 N 6.8363 1.2914 0.0 0
M  V30 12 N 6.8363 -1.1492 0.0 0
M  V30 13 C 8.2581 0.8412 0.0 0
M  V30 14 C 8.2581 -0.6753 0.0 0
M  V30 15 C 9.5496 1.6113 0.0 0
M  V30 16 C 9.5496 -1.4217 0.0 0
M  V30 17 C 10.841 0.8767 0.0 0
M  V30 18 C 10.841 -0.6516 0.0 0
M  V30 END ATOM
M  V30 BEGIN BOND
M  V30 1 1 1 2
M  V30 2 1 1 3
M  V30 3 2 2 4
M  V30 4 1 2 5
M  V30 5 1 4 6
M  V30 6 1 4 7
M  V30 7 2 5 8
M  V30 8 2 7 9
M  V30 9 1 9 10
M  V30 10 2 10 11
M  V30 11 1 10 12
M  V30 12 1 11 13
M  V30 13 1 12 14
M  V30 14 1 13 15
M  V30 15 1 14 16
M  V30 16 2 15 17
M  V30 17 2 16 18
M  V30 18 1 8 9
M  V30 19 2 13 14
M  V30 20 1 17 18
M  V30 END BOND
M  V30 END CTAB
M  END
>  <Structure No>
290

>  <Catalog ID>
Z1154375493

>  <MW (desalted)>
239.273

>  <ClogP>
2.868

>  <HBD>
2

>  <TPSA>
63.930

>  <RotBonds>
2

>  <Target>
Serine/threonine-protein kinase Chk2

>  <fromRegid>
CHEMBL179383

>  <Similarity>
0.85

$$$$
Compound 291
Actelion Java MolfileCreator 2.0

  0  0  0  0  0  0              0 V3000
M  V30 BEGIN CTAB
M  V30 COUNTS 19 20 0 0 0
M  V30 BEGIN ATOM
M  V30 1 Cl 0.0 0.0 0.0 0
M  V30 2 O 9.1084 3.6054 0.0 0
M  V30 3 C 9.5591 2.1822 0.0 0
M  V30 4 N 8.6577 0.9725 0.0 0
M  V30 5 C 10.9822 1.7315 0.0 0
M  V30 6 C 9.5353 -0.2371 0.0 0
M  V30 7 C 7.1396 0.9843 0.0 0
M  V30 8 C 10.9704 0.2371 0.0 0
M  V30 9 C 12.275 2.4905 0.0 0
M  V30 10 O 9.0609 -1.6603 0.0 0
M  V30 11 C 6.3687 -0.3083 0.0 0 CFG=2
M  V30 12 C 12.2631 -0.4981 0.0 0
M  V30 13 C 13.5677 1.7434 0.0 0
M  V30 14 O 4.8507 -0.2964 0.0 0
M  V30 15 C 7.1159 -1.601 0.0 0
M  V30 16 C 13.5559 0.2609 0.0 0
M  V30 17 C 4.0916 -1.5892 0.0 0
M  V30 18 N 6.345 -2.8938 0.0 0
M  V30 19 C 4.8269 -2.8819 0.0 0
M  V30 END ATOM
M  V30 BEGIN BOND
M  V30 1 2 2 3
M  V30 2 1 3 4
M  V30 3 1 3 5
M  V30 4 1 4 6
M  V30 5 1 4 7
M  V30 6 2 5 8
M  V30 7 1 5 9
M  V30 8 2 6 10
M  V30 9 1 11 7 CFG=1
M  V30 10 1 8 12
M  V30 11 2 9 13
M  V30 12 1 11 14
M  V30 13 1 11 15
M  V30 14 2 12 16
M  V30 15 1 14 17
M  V30 16 1 15 18
M  V30 17 1 17 19
M  V30 18 1 6 8
M  V30 19 1 13 16
M  V30 20 1 18 19
M  V30 END BOND
M  V30 BEGIN COLLECTION
M  V30 MDLV30/STERAC1 ATOMS=(1 11)
M  V30 END COLLECTION
M  V30 END CTAB
M  END
>  <Structure No>
291

>  <Catalog ID>
Z1463350069

>  <MW (desalted)>
246.262

>  <ClogP>
0.822

>  <HBD>
1

>  <TPSA>
58.640

>  <RotBonds>
2

>  <Target>
Poly [ADP-ribose] polymerase-1

>  <fromRegid>
CHEMBL3605976

>  <Similarity>
0.88

$$$$
Compound 292
Actelion Java MolfileCreator 2.0

  0  0  0  0  0  0              0 V3000
M  V30 BEGIN CTAB
M  V30 COUNTS 18 19 0 0 0
M  V30 BEGIN ATOM
M  V30 1 O 0.0 0.0 0.0 0
M  V30 2 C -1.3136 -0.7337 0.0 0
M  V30 3 N -2.6273 0.0236 0.0 0
M  V30 4 C -1.3254 -2.2249 0.0 0
M  V30 5 C -2.6391 1.5385 0.0 0
M  V30 6 N -2.5562 -3.1006 0.0 0
M  V30 7 C -0.1183 -3.1006 0.0 0
M  V30 8 C -2.6509 3.0533 0.0 0
M  V30 9 C -4.1539 1.5503 0.0 0
M  V30 10 C -1.1479 1.5503 0.0 0
M  V30 11 N -2.1065 -4.5208 0.0 0
M  V30 12 C -0.5917 -4.5208 0.0 0
M  V30 13 C 0.284 -5.7279 0.0 0
M  V30 14 C 1.7633 -5.5623 0.0 0
M  V30 15 C -0.3432 -7.0889 0.0 0
M  V30 16 C 2.6391 -6.7694 0.0 0
M  V30 17 C 0.5325 -8.2961 0.0 0
M  V30 18 C 2.0118 -8.1304 0.0 0
M  V30 END ATOM
M  V30 BEGIN BOND
M  V30 1 2 1 2
M  V30 2 1 2 3
M  V30 3 1 2 4
M  V30 4 1 3 5
M  V30 5 2 4 6
M  V30 6 1 4 7
M  V30 7 1 5 8
M  V30 8 1 5 9
M  V30 9 1 5 10
M  V30 10 1 6 11
M  V30 11 2 7 12
M  V30 12 1 12 13
M  V30 13 2 13 14
M  V30 14 1 13 15
M  V30 15 1 14 16
M  V30 16 2 15 17
M  V30 17 2 16 18
M  V30 18 1 11 12
M  V30 19 1 17 18
M  V30 END BOND
M  V30 END CTAB
M  END
>  <Structure No>
292

>  <Catalog ID>
Z183133284

>  <MW (desalted)>
243.304

>  <ClogP>
3.163

>  <HBD>
2

>  <TPSA>
57.780

>  <RotBonds>
3

>  <Target>
Serine/threonine-protein kinase Chk1

>  <fromRegid>
CHEMBL1995916

>  <Similarity>
0.91

$$$$
Compound 293
Actelion Java MolfileCreator 2.0

  0  0  0  0  0  0              0 V3000
M  V30 BEGIN CTAB
M  V30 COUNTS 18 20 0 0 0
M  V30 BEGIN ATOM
M  V30 1 O 0.0 0.0 0.0 0
M  V30 2 C 1.2878 -0.7443 0.0 0
M  V30 3 N 1.276 -2.233 0.0 0
M  V30 4 C 2.5757 0.0236 0.0 0
M  V30 5 C -0.0354 -2.9656 0.0 0
M  V30 6 C 2.5639 1.5359 0.0 0
M  V30 7 C 3.8635 -0.7207 0.0 0
M  V30 8 C -1.3469 -2.2094 0.0 0
M  V30 9 C -0.0472 -4.4543 0.0 0
M  V30 10 C 3.8517 2.2921 0.0 0
M  V30 11 C 5.1514 0.0472 0.0 0
M  V30 12 C -2.6584 -2.9419 0.0 0
M  V30 13 C -1.3587 -5.1868 0.0 0
M  V30 14 C 5.1396 1.5596 0.0 0
M  V30 15 C -2.6702 -4.4307 0.0 0
M  V30 16 C -4.0998 -2.4693 0.0 0
M  V30 17 N -4.1117 -4.8796 0.0 0
M  V30 18 N -4.9978 -3.6745 0.0 0
M  V30 END ATOM
M  V30 BEGIN BOND
M  V30 1 2 1 2
M  V30 2 1 2 3
M  V30 3 1 2 4
M  V30 4 1 3 5
M  V30 5 2 4 6
M  V30 6 1 4 7
M  V30 7 2 5 8
M  V30 8 1 5 9
M  V30 9 1 6 10
M  V30 10 2 7 11
M  V30 11 1 8 12
M  V30 12 2 9 13
M  V30 13 2 10 14
M  V30 14 2 12 15
M  V30 15 1 12 16
M  V30 16 1 15 17
M  V30 17 2 16 18
M  V30 18 1 11 14
M  V30 19 1 13 15
M  V30 20 1 17 18
M  V30 END BOND
M  V30 END CTAB
M  END
>  <Structure No>
293

>  <Catalog ID>
Z56889286

>  <MW (desalted)>
237.257

>  <ClogP>
2.719

>  <HBD>
2

>  <TPSA>
57.780

>  <RotBonds>
2

>  <Target>
Serine/threonine-protein kinase Chk2

>  <fromRegid>
CHEMBL1973808

>  <Similarity>
0.92

$$$$
Compound 294
Actelion Java MolfileCreator 2.0

  0  0  0  0  0  0              0 V3000
M  V30 BEGIN CTAB
M  V30 COUNTS 18 19 0 0 0
M  V30 BEGIN ATOM
M  V30 1 F 0.0 0.0 0.0 0
M  V30 2 C 1.2951 -0.7485 0.0 0
M  V30 3 C 2.5902 0.0118 0.0 0
M  V30 4 C 1.2832 -2.2456 0.0 0
M  V30 5 C 3.8853 -0.7366 0.0 0
M  V30 6 C 2.5783 -2.9942 0.0 0
M  V30 7 C 3.8734 -2.2337 0.0 0
M  V30 8 C 5.1685 -2.9823 0.0 0
M  V30 9 C 6.4637 -2.21 0.0 0
M  V30 10 N 7.7588 -2.9585 0.0 0
M  V30 11 C 9.0539 -2.1862 0.0 0
M  V30 12 O 9.042 -0.6653 0.0 0
M  V30 13 C 10.349 -2.9348 0.0 0
M  V30 14 C 11.6441 -2.1624 0.0 0
M  V30 15 C 10.3371 -4.4319 0.0 0
M  V30 16 C 12.9392 -2.911 0.0 0
M  V30 17 C 11.6322 -5.1685 0.0 0
M  V30 18 C 12.9274 -4.4081 0.0 0
M  V30 END ATOM
M  V30 BEGIN BOND
M  V30 1 1 1 2
M  V30 2 2 2 3
M  V30 3 1 2 4
M  V30 4 1 3 5
M  V30 5 2 4 6
M  V30 6 2 5 7
M  V30 7 1 7 8
M  V30 8 1 8 9
M  V30 9 1 9 10
M  V30 10 1 10 11
M  V30 11 2 11 12
M  V30 12 1 11 13
M  V30 13 2 13 14
M  V30 14 1 13 15
M  V30 15 1 14 16
M  V30 16 2 15 17
M  V30 17 2 16 18
M  V30 18 1 6 7
M  V30 19 1 17 18
M  V30 END BOND
M  V30 END CTAB
M  END
>  <Structure No>
294

>  <Catalog ID>
Z26769912

>  <MW (desalted)>
243.276

>  <ClogP>
3.101

>  <HBD>
1

>  <TPSA>
29.100

>  <RotBonds>
4

>  <Target>
Poly [ADP-ribose] polymerase-1

>  <fromRegid>
CHEMBL3629672

>  <Similarity>
0.85

$$$$
Compound 295
Actelion Java MolfileCreator 2.0

  0  0  0  0  0  0              0 V3000
M  V30 BEGIN CTAB
M  V30 COUNTS 18 19 0 0 0
M  V30 BEGIN ATOM
M  V30 1 O 0.0 0.0 0.0 0
M  V30 2 C -1.314 -0.7339 0.0 0
M  V30 3 N -2.6281 0.0236 0.0 0
M  V30 4 C -1.3258 -2.2256 0.0 0
M  V30 5 C -2.6399 1.5389 0.0 0
M  V30 6 C -3.9421 -0.7102 0.0 0
M  V30 7 N -2.557 -3.1016 0.0 0
M  V30 8 C -0.1183 -3.1016 0.0 0
M  V30 9 C -3.954 2.2966 0.0 0
M  V30 10 C -3.954 -2.2019 0.0 0
M  V30 11 N -2.1072 -4.5222 0.0 0
M  V30 12 C -0.5919 -4.5222 0.0 0
M  V30 13 C 0.2841 -5.7297 0.0 0
M  V30 14 C 1.7639 -5.564 0.0 0
M  V30 15 C -0.3433 -7.0911 0.0 0
M  V30 16 C 2.6399 -6.7715 0.0 0
M  V30 17 C 0.5327 -8.2986 0.0 0
M  V30 18 C 2.0125 -8.1329 0.0 0
M  V30 END ATOM
M  V30 BEGIN BOND
M  V30 1 2 1 2
M  V30 2 1 2 3
M  V30 3 1 2 4
M  V30 4 1 3 5
M  V30 5 1 3 6
M  V30 6 2 4 7
M  V30 7 1 4 8
M  V30 8 1 5 9
M  V30 9 1 6 10
M  V30 10 1 7 11
M  V30 11 2 8 12
M  V30 12 1 12 13
M  V30 13 2 13 14
M  V30 14 1 13 15
M  V30 15 1 14 16
M  V30 16 2 15 17
M  V30 17 2 16 18
M  V30 18 1 11 12
M  V30 19 1 17 18
M  V30 END BOND
M  V30 END CTAB
M  END
>  <Structure No>
295

>  <Catalog ID>
Z251650600

>  <MW (desalted)>
243.304

>  <ClogP>
2.499

>  <HBD>
1

>  <TPSA>
48.990

>  <RotBonds>
4

>  <Target>
Serine/threonine-protein kinase Chk1

>  <fromRegid>
CHEMBL1995916

>  <Similarity>
0.9

$$$$
Compound 296
Actelion Java MolfileCreator 2.0

  0  0  0  0  0  0              0 V3000
M  V30 BEGIN CTAB
M  V30 COUNTS 25 28 0 0 0
M  V30 BEGIN ATOM
M  V30 1 O 0.0 0.0 0.0 0
M  V30 2 C 0.4502 -1.4219 0.0 0
M  V30 3 N -0.4502 -2.6305 0.0 0
M  V30 4 C 1.8722 -1.8722 0.0 0
M  V30 5 C 0.4265 -3.8392 0.0 0
M  V30 6 C -1.967 -2.6187 0.0 0
M  V30 7 C 1.8603 -3.3652 0.0 0
M  V30 8 C 3.1638 -1.102 0.0 0
M  V30 9 O -0.0473 -5.2611 0.0 0
M  V30 10 C -2.7253 -3.9103 0.0 0 CFG=2
M  V30 11 C 3.1519 -4.1117 0.0 0
M  V30 12 C 4.4554 -1.8366 0.0 0
M  V30 13 O -4.2421 -3.8984 0.0 0
M  V30 14 C -1.9907 -5.2019 0.0 0
M  V30 15 C 4.4435 -3.3415 0.0 0
M  V30 16 C -5.0123 -5.19 0.0 0
M  V30 17 N -2.749 -6.4935 0.0 0
M  V30 18 C -4.2658 -6.4816 0.0 0
M  V30 19 C -2.0144 -7.7851 0.0 0
M  V30 20 C -2.7727 -9.0767 0.0 0
M  V30 21 C -2.0381 -10.3683 0.0 0
M  V30 22 C -4.2895 -9.0648 0.0 0
M  V30 23 C -2.7964 -11.6599 0.0 0
M  V30 24 C -5.0597 -10.3564 0.0 0
M  V30 25 C -4.3132 -11.648 0.0 0
M  V30 END ATOM
M  V30 BEGIN BOND
M  V30 1 2 1 2
M  V30 2 1 2 3
M  V30 3 1 2 4
M  V30 4 1 3 5
M  V30 5 1 3 6
M  V30 6 2 4 7
M  V30 7 1 4 8
M  V30 8 2 5 9
M  V30 9 1 10 6 CFG=1
M  V30 10 1 7 11
M  V30 11 2 8 12
M  V30 12 1 10 13
M  V30 13 1 10 14
M  V30 14 2 11 15
M  V30 15 1 13 16
M  V30 16 1 14 17
M  V30 17 1 16 18
M  V30 18 1 17 19
M  V30 19 1 19 20
M  V30 20 2 20 21
M  V30 21 1 20 22
M  V30 22 1 21 23
M  V30 23 2 22 24
M  V30 24 2 23 25
M  V30 25 1 5 7
M  V30 26 1 12 15
M  V30 27 1 17 18
M  V30 28 1 24 25
M  V30 END BOND
M  V30 BEGIN COLLECTION
M  V30 MDLV30/STERAC1 ATOMS=(1 10)
M  V30 END COLLECTION
M  V30 END CTAB
M  END
>  <Structure No>
296

>  <Catalog ID>
Z18271678

>  <MW (desalted)>
336.384

>  <ClogP>
3.119

>  <HBD>
0

>  <TPSA>
49.850

>  <RotBonds>
4

>  <Target>
Poly [ADP-ribose] polymerase-1

>  <fromRegid>
CHEMBL3605976

>  <Similarity>
0.87

$$$$
Compound 297
Actelion Java MolfileCreator 2.0

  0  0  0  0  0  0              0 V3000
M  V30 BEGIN CTAB
M  V30 COUNTS 18 19 0 0 0
M  V30 BEGIN ATOM
M  V30 1 O 0.0 0.0 0.0 0
M  V30 2 C -0.0118 -1.4872 0.0 0
M  V30 3 N -1.3219 -2.2308 0.0 0
M  V30 4 C 1.2747 -2.2308 0.0 0
M  V30 5 C -2.6321 -1.4636 0.0 0
M  V30 6 C 2.5613 -1.4636 0.0 0
M  V30 7 C 1.2629 -3.718 0.0 0
M  V30 8 C -3.9422 -2.2072 0.0 0
M  V30 9 C 3.8478 -2.2072 0.0 0
M  V30 10 C 2.5495 -4.4498 0.0 0
M  V30 11 C -5.2524 -1.4399 0.0 0
M  V30 12 C 3.836 -3.6944 0.0 0
M  V30 13 C -6.5626 -2.1836 0.0 0
M  V30 14 C -5.2642 0.0708 0.0 0
M  V30 15 C -7.8727 -1.4163 0.0 0
M  V30 16 C -6.5744 -3.6708 0.0 0
M  V30 17 C -6.5744 0.8262 0.0 0
M  V30 18 C -7.8845 0.0944 0.0 0
M  V30 END ATOM
M  V30 BEGIN BOND
M  V30 1 2 1 2
M  V30 2 1 2 3
M  V30 3 1 2 4
M  V30 4 1 3 5
M  V30 5 2 4 6
M  V30 6 1 4 7
M  V30 7 1 5 8
M  V30 8 1 6 9
M  V30 9 2 7 10
M  V30 10 1 8 11
M  V30 11 2 9 12
M  V30 12 2 11 13
M  V30 13 1 11 14
M  V30 14 1 13 15
M  V30 15 1 13 16
M  V30 16 2 14 17
M  V30 17 2 15 18
M  V30 18 1 10 12
M  V30 19 1 17 18
M  V30 END BOND
M  V30 END CTAB
M  END
>  <Structure No>
297

>  <Catalog ID>
Z52314223

>  <MW (desalted)>
239.312

>  <ClogP>
3.407

>  <HBD>
1

>  <TPSA>
29.100

>  <RotBonds>
4

>  <Target>
Poly [ADP-ribose] polymerase-1

>  <fromRegid>
CHEMBL1688212

>  <Similarity>
0.91

$$$$
Compound 298
Actelion Java MolfileCreator 2.0

  0  0  0  0  0  0              0 V3000
M  V30 BEGIN CTAB
M  V30 COUNTS 18 20 0 0 0
M  V30 BEGIN ATOM
M  V30 1 O 0.0 0.0 0.0 0
M  V30 2 C -0.0118 1.5117 0.0 0
M  V30 3 N -1.3227 2.2675 0.0 0
M  V30 4 C 1.2754 2.2675 0.0 0
M  V30 5 N -1.3345 3.7792 0.0 0
M  V30 6 C 1.2636 3.7792 0.0 0
M  V30 7 C 2.5628 1.5235 0.0 0
M  V30 8 C -0.0472 4.5351 0.0 0
M  V30 9 C 2.5509 4.5351 0.0 0
M  V30 10 C 3.8501 2.2793 0.0 0
M  V30 11 C -0.059 6.0468 0.0 0
M  V30 12 C 3.8383 3.8028 0.0 0
M  V30 13 C 1.2282 6.8026 0.0 0
M  V30 14 C 1.2164 8.3143 0.0 0
M  V30 15 C 2.5155 6.0704 0.0 0
M  V30 16 C 2.5037 9.0702 0.0 0
M  V30 17 C 3.8028 6.8262 0.0 0
M  V30 18 N 3.791 8.3379 0.0 0
M  V30 END ATOM
M  V30 BEGIN BOND
M  V30 1 2 1 2
M  V30 2 1 2 3
M  V30 3 1 2 4
M  V30 4 1 3 5
M  V30 5 2 4 6
M  V30 6 1 4 7
M  V30 7 2 5 8
M  V30 8 1 6 9
M  V30 9 2 7 10
M  V30 10 1 8 11
M  V30 11 2 9 12
M  V30 12 1 11 13
M  V30 13 2 13 14
M  V30 14 1 13 15
M  V30 15 1 14 16
M  V30 16 2 15 17
M  V30 17 2 16 18
M  V30 18 1 6 8
M  V30 19 1 10 12
M  V30 20 1 17 18
M  V30 END BOND
M  V30 END CTAB
M  END
>  <Structure No>
298

>  <Catalog ID>
Z56759694

>  <MW (desalted)>
237.257

>  <ClogP>
0.725

>  <HBD>
1

>  <TPSA>
54.350

>  <RotBonds>
2

>  <Target>
Poly [ADP-ribose] polymerase-1

>  <fromRegid>
CHEMBL66761

>  <Similarity>
0.89

$$$$
Compound 299
Actelion Java MolfileCreator 2.0

  0  0  0  0  0  0              0 V3000
M  V30 BEGIN CTAB
M  V30 COUNTS 18 20 0 0 0
M  V30 BEGIN ATOM
M  V30 1 S 0.0 0.0 0.0 0
M  V30 2 O -0.7672 1.3101 0.0 0
M  V30 3 O 0.7318 -1.2865 0.0 0
M  V30 4 N 1.2865 0.7672 0.0 0
M  V30 5 C -1.3101 -0.7318 0.0 0
M  V30 6 C 1.4282 2.2662 0.0 0
M  V30 7 C 2.6439 0.1652 0.0 0
M  V30 8 C -2.6203 0.0236 0.0 0
M  V30 9 C -1.3219 -2.219 0.0 0
M  V30 10 C 2.88 2.5849 0.0 0 CFG=2
M  V30 11 C 3.6354 1.2865 0.0 0
M  V30 12 C -3.9305 -0.7082 0.0 0
M  V30 13 C -2.6321 -2.9508 0.0 0
M  V30 14 N 3.482 3.9659 0.0 0
M  V30 15 C -3.9423 -2.1954 0.0 0
M  V30 16 C -5.3706 -0.236 0.0 0
M  V30 17 O -5.3824 -2.6439 0.0 0
M  V30 18 C -6.2676 -1.44 0.0 0
M  V30 END ATOM
M  V30 BEGIN BOND
M  V30 1 2 1 2
M  V30 2 2 1 3
M  V30 3 1 1 4
M  V30 4 1 1 5
M  V30 5 1 4 6
M  V30 6 1 4 7
M  V30 7 2 5 8
M  V30 8 1 5 9
M  V30 9 1 6 10
M  V30 10 1 7 11
M  V30 11 1 8 12
M  V30 12 2 9 13
M  V30 13 1 10 14 CFG=1
M  V30 14 2 12 15
M  V30 15 1 12 16
M  V30 16 1 15 17
M  V30 17 1 16 18
M  V30 18 1 10 11
M  V30 19 1 13 15
M  V30 20 1 17 18
M  V30 END BOND
M  V30 BEGIN COLLECTION
M  V30 MDLV30/STEABS ATOMS=(1 10)
M  V30 END COLLECTION
M  V30 END CTAB
M  END
>  <Structure No>
299

>  <Catalog ID>
Z1480871240

>  <MW (desalted)>
268.332

>  <ClogP>
1.123

>  <HBD>
1

>  <TPSA>
72.630

>  <RotBonds>
1

>  <Target>
CHK2

>  <fromRegid>


>  <Similarity>


$$$$
Compound 300
Actelion Java MolfileCreator 2.0

  0  0  0  0  0  0              0 V3000
M  V30 BEGIN CTAB
M  V30 COUNTS 19 18 0 0 0
M  V30 BEGIN ATOM
M  V30 1 Br 0.0 0.0 0.0 0
M  V30 2 C 1.28 0.7622 0.0 0
M  V30 3 C 1.2656 2.2723 0.0 0
M  V30 4 C 2.56 0.0287 0.0 0
M  V30 5 C -0.0431 3.0346 0.0 0
M  V30 6 C 2.5456 3.0346 0.0 0
M  V30 7 C 3.84 0.791 0.0 0
M  V30 8 O -0.0575 4.5447 0.0 0
M  V30 9 N -1.3519 2.3011 0.0 0
M  V30 10 C 3.8256 2.3011 0.0 0
M  V30 11 F 5.12 0.0575 0.0 0
M  V30 12 C -2.6607 3.0634 0.0 0
M  V30 13 C -3.9695 2.3299 0.0 0
M  V30 14 N -5.2782 3.0921 0.0 0
M  V30 15 C -6.587 2.3586 0.0 0
M  V30 16 C -7.8958 3.1209 0.0 0
M  V30 17 O -9.2046 2.3874 0.0 0
M  V30 18 C -10.5134 3.1497 0.0 0
M  V30 19 Cl -14.7274 2.1861 0.0 0
M  V30 END ATOM
M  V30 BEGIN BOND
M  V30 1 1 1 2
M  V30 2 2 2 3
M  V30 3 1 2 4
M  V30 4 1 3 5
M  V30 5 1 3 6
M  V30 6 2 4 7
M  V30 7 2 5 8
M  V30 8 1 5 9
M  V30 9 2 6 10
M  V30 10 1 7 11
M  V30 11 1 9 12
M  V30 12 1 12 13
M  V30 13 1 13 14
M  V30 14 1 14 15
M  V30 15 1 15 16
M  V30 16 1 16 17
M  V30 17 1 17 18
M  V30 18 1 7 10
M  V30 END BOND
M  V30 END CTAB
M  END
>  <Structure No>
300

>  <Catalog ID>
Z1561246235

>  <MW (desalted)>
319.170

>  <ClogP>
1.327

>  <HBD>
2

>  <TPSA>
50.360

>  <RotBonds>
7

>  <Target>
ATM

>  <fromRegid>


>  <Similarity>


$$$$
Compound 301
Actelion Java MolfileCreator 2.0

  0  0  0  0  0  0              0 V3000
M  V30 BEGIN CTAB
M  V30 COUNTS 18 20 0 0 0
M  V30 BEGIN ATOM
M  V30 1 O 0.0 0.0 0.0 0
M  V30 2 C -0.0118 1.5113 0.0 0
M  V30 3 N -1.3223 2.2787 0.0 0
M  V30 4 C 1.2751 2.2787 0.0 0
M  V30 5 C -1.3341 3.79 0.0 0
M  V30 6 C 1.2633 3.79 0.0 0
M  V30 7 C 2.5621 1.5349 0.0 0
M  V30 8 N -0.0472 4.5575 0.0 0
M  V30 9 C -2.6447 4.5575 0.0 0
M  V30 10 C 2.5503 4.5575 0.0 0
M  V30 11 C 3.849 2.3023 0.0 0
M  V30 12 C 3.8372 3.8136 0.0 0
M  V30 13 C 5.136 1.5585 0.0 0
M  V30 14 C 6.423 2.3259 0.0 0
M  V30 15 C 5.1242 0.0708 0.0 0
M  V30 16 C 7.7099 1.5821 0.0 0
M  V30 17 C 6.4112 -0.673 0.0 0
M  V30 18 C 7.6981 0.0944 0.0 0
M  V30 END ATOM
M  V30 BEGIN BOND
M  V30 1 2 1 2
M  V30 2 1 2 3
M  V30 3 1 2 4
M  V30 4 1 3 5
M  V30 5 2 4 6
M  V30 6 1 4 7
M  V30 7 2 5 8
M  V30 8 1 5 9
M  V30 9 1 6 10
M  V30 10 2 7 11
M  V30 11 2 10 12
M  V30 12 1 11 13
M  V30 13 2 13 14
M  V30 14 1 13 15
M  V30 15 1 14 16
M  V30 16 2 15 17
M  V30 17 2 16 18
M  V30 18 1 6 8
M  V30 19 1 11 12
M  V30 20 1 17 18
M  V30 END BOND
M  V30 END CTAB
M  END
>  <Structure No>
301

>  <Catalog ID>
Z967655824

>  <MW (desalted)>
236.269

>  <ClogP>
2.692

>  <HBD>
1

>  <TPSA>
41.460

>  <RotBonds>
1

>  <Target>
Poly [ADP-ribose] polymerase-1

>  <fromRegid>
CHEMBL395092

>  <Similarity>
0.91

$$$$
Compound 302
Actelion Java MolfileCreator 2.0

  0  0  0  0  0  0              0 V3000
M  V30 BEGIN CTAB
M  V30 COUNTS 18 19 0 0 0
M  V30 BEGIN ATOM
M  V30 1 O 0.0 0.0 0.0 0
M  V30 2 C -0.0117 1.5092 0.0 0
M  V30 3 N -1.3205 2.2638 0.0 0
M  V30 4 C 1.2734 2.2638 0.0 0
M  V30 5 C -2.6293 1.5328 0.0 0 CFG=2
M  V30 6 C 1.2616 3.7731 0.0 0
M  V30 7 C 2.5586 1.5328 0.0 0
M  V30 8 C -3.9381 2.2874 0.0 0
M  V30 9 C -2.6411 0.0471 0.0 0
M  V30 10 C 2.5468 4.5277 0.0 0
M  V30 11 C 3.8438 2.2874 0.0 0
M  V30 12 C -5.2469 1.5564 0.0 0
M  V30 13 C -3.9499 3.7966 0.0 0
M  V30 14 O -3.9499 -0.6838 0.0 0
M  V30 15 N 3.832 3.7966 0.0 0
M  V30 16 C -6.5557 2.311 0.0 0
M  V30 17 C -5.2587 4.5513 0.0 0
M  V30 18 C -6.5675 3.8202 0.0 0
M  V30 END ATOM
M  V30 BEGIN BOND
M  V30 1 2 1 2
M  V30 2 1 2 3
M  V30 3 1 2 4
M  V30 4 1 5 3 CFG=1
M  V30 5 2 4 6
M  V30 6 1 4 7
M  V30 7 1 5 8
M  V30 8 1 5 9
M  V30 9 1 6 10
M  V30 10 2 7 11
M  V30 11 2 8 12
M  V30 12 1 8 13
M  V30 13 1 9 14
M  V30 14 2 10 15
M  V30 15 1 12 16
M  V30 16 2 13 17
M  V30 17 2 16 18
M  V30 18 1 11 15
M  V30 19 1 17 18
M  V30 END BOND
M  V30 BEGIN COLLECTION
M  V30 MDLV30/STEABS ATOMS=(1 5)
M  V30 END COLLECTION
M  V30 END CTAB
M  END
>  <Structure No>
302

>  <Catalog ID>
Z1430634745

>  <MW (desalted)>
242.273

>  <ClogP>
1.191

>  <HBD>
2

>  <TPSA>
62.220

>  <RotBonds>
4

>  <Target>
Serine/threonine-protein kinase Chk2

>  <fromRegid>
CHEMBL1974288

>  <Similarity>
0.9

$$$$
Compound 303
Actelion Java MolfileCreator 2.0

  0  0  0  0  0  0              0 V3000
M  V30 BEGIN CTAB
M  V30 COUNTS 18 20 0 0 0
M  V30 BEGIN ATOM
M  V30 1 O 0.0 0.0 0.0 0
M  V30 2 C -0.7592 -1.293 0.0 0
M  V30 3 N -2.2776 -1.2811 0.0 0
M  V30 4 C -0.0118 -2.586 0.0 0
M  V30 5 C -3.0368 0.0355 0.0 0
M  V30 6 C -0.771 -3.879 0.0 0
M  V30 7 C 1.4828 -2.5741 0.0 0
M  V30 8 N -2.2894 -3.8672 0.0 0
M  V30 9 C -0.0237 -5.1721 0.0 0
M  V30 10 C 2.2183 -3.8672 0.0 0
M  V30 11 C -3.0487 -5.1602 0.0 0
M  V30 12 C 1.4709 -5.1602 0.0 0
M  V30 13 C -0.7829 -6.4651 0.0 0
M  V30 14 C 3.713 -3.8553 0.0 0
M  V30 15 C -2.3132 -6.4532 0.0 0
M  V30 16 C 2.2064 -6.4532 0.0 0
M  V30 17 C 4.4603 -5.1483 0.0 0
M  V30 18 C 3.7011 -6.4414 0.0 0
M  V30 END ATOM
M  V30 BEGIN BOND
M  V30 1 2 1 2
M  V30 2 1 2 3
M  V30 3 1 2 4
M  V30 4 1 3 5
M  V30 5 1 4 6
M  V30 6 2 4 7
M  V30 7 2 6 8
M  V30 8 1 6 9
M  V30 9 1 7 10
M  V30 10 1 8 11
M  V30 11 1 9 12
M  V30 12 2 9 13
M  V30 13 2 10 14
M  V30 14 2 11 15
M  V30 15 2 12 16
M  V30 16 1 14 17
M  V30 17 1 16 18
M  V30 18 1 10 12
M  V30 19 1 13 15
M  V30 20 2 17 18
M  V30 END BOND
M  V30 END CTAB
M  END
>  <Structure No>
303

>  <Catalog ID>
Z441661418

>  <MW (desalted)>
236.269

>  <ClogP>
2.480

>  <HBD>
1

>  <TPSA>
41.990

>  <RotBonds>
1

>  <Target>
Poly [ADP-ribose] polymerase-1

>  <fromRegid>
CHEMBL502330

>  <Similarity>
0.88

$$$$
Compound 304
Actelion Java MolfileCreator 2.0

  0  0  0  0  0  0              0 V3000
M  V30 BEGIN CTAB
M  V30 COUNTS 20 21 0 0 0
M  V30 BEGIN ATOM
M  V30 1 Cl 0.0 0.0 0.0 0
M  V30 2 S 5.3863 -0.4724 0.0 0
M  V30 3 O 6.8746 -0.4606 0.0 0
M  V30 4 O 3.8743 -0.4606 0.0 0
M  V30 5 N 5.3745 -1.9608 0.0 0
M  V30 6 C 5.3745 1.0394 0.0 0
M  V30 7 C 6.5793 -2.8349 0.0 0
M  V30 8 C 4.146 -2.8349 0.0 0
M  V30 9 C 6.662 1.7954 0.0 0
M  V30 10 C 4.0633 1.7954 0.0 0
M  V30 11 C 6.1068 -4.2523 0.0 0 CFG=2
M  V30 12 C 4.5949 -4.2523 0.0 0
M  V30 13 C 6.6502 3.3074 0.0 0
M  V30 14 C 7.9495 1.063 0.0 0
M  V30 15 C 4.0515 3.3074 0.0 0
M  V30 16 N 6.9809 -5.4572 0.0 0
M  V30 17 C 7.9377 4.0752 0.0 0
M  V30 18 C 5.3391 4.0752 0.0 0
M  V30 19 C 9.2371 1.819 0.0 0
M  V30 20 N 9.2253 3.331 0.0 0
M  V30 END ATOM
M  V30 BEGIN BOND
M  V30 1 2 2 3
M  V30 2 2 2 4
M  V30 3 1 2 5
M  V30 4 1 2 6
M  V30 5 1 5 7
M  V30 6 1 5 8
M  V30 7 1 6 9
M  V30 8 2 6 10
M  V30 9 1 7 11
M  V30 10 1 8 12
M  V30 11 1 9 13
M  V30 12 2 9 14
M  V30 13 1 10 15
M  V30 14 1 11 16 CFG=1
M  V30 15 2 13 17
M  V30 16 1 13 18
M  V30 17 1 14 19
M  V30 18 1 17 20
M  V30 19 1 11 12
M  V30 20 2 15 18
M  V30 21 2 19 20
M  V30 END BOND
M  V30 BEGIN COLLECTION
M  V30 MDLV30/STERAC1 ATOMS=(1 11)
M  V30 END COLLECTION
M  V30 END CTAB
M  END
>  <Structure No>
304

>  <Catalog ID>
Z1491270667

>  <MW (desalted)>
277.342

>  <ClogP>
0.608

>  <HBD>
1

>  <TPSA>
76.290

>  <RotBonds>
1

>  <Target>
Serine/threonine-protein kinase Chk2

>  <fromRegid>
CHEMBL38380

>  <Similarity>
0.91

$$$$
Compound 305
Actelion Java MolfileCreator 2.0

  0  0  0  0  0  0              0 V3000
M  V30 BEGIN CTAB
M  V30 COUNTS 19 21 0 0 0
M  V30 BEGIN ATOM
M  V30 1 S 0.0 0.0 0.0 0
M  V30 2 C 1.4152 0.4717 0.0 0
M  V30 3 C -0.8963 1.2265 0.0 0
M  V30 4 N 2.7008 -0.2594 0.0 0
M  V30 5 C 1.4034 1.9813 0.0 0
M  V30 6 C -0.0235 2.4531 0.0 0
M  V30 7 C 3.9863 0.4953 0.0 0
M  V30 8 C 2.689 2.7361 0.0 0
M  V30 9 C -0.4953 3.8919 0.0 0
M  V30 10 N 3.9745 2.0049 0.0 0
M  V30 11 O 2.6772 4.2458 0.0 0
M  V30 12 S 0.3774 5.1185 0.0 0
M  V30 13 C -1.9342 4.3637 0.0 0
M  V30 14 C 5.26 2.7597 0.0 0
M  V30 15 C -0.5189 6.3451 0.0 0
M  V30 16 C -1.9459 5.8733 0.0 0
M  V30 17 C 6.5456 2.0285 0.0 0
M  V30 18 O 6.5338 0.5425 0.0 0
M  V30 19 O 7.8311 2.7833 0.0 0
M  V30 END ATOM
M  V30 BEGIN BOND
M  V30 1 1 1 2
M  V30 2 1 1 3
M  V30 3 1 2 4
M  V30 4 2 2 5
M  V30 5 2 3 6
M  V30 6 2 4 7
M  V30 7 1 5 8
M  V30 8 1 6 9
M  V30 9 1 7 10
M  V30 10 2 8 11
M  V30 11 1 9 12
M  V30 12 2 9 13
M  V30 13 1 10 14
M  V30 14 1 12 15
M  V30 15 1 13 16
M  V30 16 1 14 17
M  V30 17 2 17 18
M  V30 18 1 17 19
M  V30 19 1 5 6
M  V30 20 1 8 10
M  V30 21 2 15 16
M  V30 END BOND
M  V30 END CTAB
M  END
>  <Structure No>
305

>  <Catalog ID>
Z85929777

>  <MW (desalted)>
292.334

>  <ClogP>
2.040

>  <HBD>
1

>  <TPSA>
69.970

>  <RotBonds>
3

>  <Target>
Serine/threonine-protein kinase Chk1

>  <fromRegid>
CHEMBL559696

>  <Similarity>
0.85

$$$$
Compound 306
Actelion Java MolfileCreator 2.0

  0  0  0  0  0  0              0 V3000
M  V30 BEGIN CTAB
M  V30 COUNTS 19 20 0 0 0
M  V30 BEGIN ATOM
M  V30 1 S 0.0 0.0 0.0 0
M  V30 2 O 0.734 -1.2904 0.0 0
M  V30 3 O -0.7577 1.3141 0.0 0
M  V30 4 N -1.3141 -0.7458 0.0 0
M  V30 5 C 1.2904 0.7577 0.0 0
M  V30 6 C -1.326 -2.2376 0.0 0
M  V30 7 C 2.5809 0.0118 0.0 0
M  V30 8 C 1.2786 2.2731 0.0 0
M  V30 9 C -2.6401 -2.9716 0.0 0
M  V30 10 C 3.8714 0.7695 0.0 0
M  V30 11 C 2.5691 3.0308 0.0 0
M  V30 12 O -3.9543 -2.2139 0.0 0
M  V30 13 O -2.652 -4.4634 0.0 0
M  V30 14 N 5.1619 0.0236 0.0 0
M  V30 15 C 3.8596 2.2849 0.0 0
M  V30 16 C 6.4524 0.7813 0.0 0
M  V30 17 S 5.15 3.0426 0.0 0
M  V30 18 O 7.7428 0.0355 0.0 0
M  V30 19 C 6.4405 2.2968 0.0 0
M  V30 END ATOM
M  V30 BEGIN BOND
M  V30 1 2 1 2
M  V30 2 2 1 3
M  V30 3 1 1 4
M  V30 4 1 1 5
M  V30 5 1 4 6
M  V30 6 2 5 7
M  V30 7 1 5 8
M  V30 8 1 6 9
M  V30 9 1 7 10
M  V30 10 2 8 11
M  V30 11 2 9 12
M  V30 12 1 9 13
M  V30 13 1 10 14
M  V30 14 2 10 15
M  V30 15 1 14 16
M  V30 16 1 15 17
M  V30 17 2 16 18
M  V30 18 1 16 19
M  V30 19 1 11 15
M  V30 20 1 17 19
M  V30 END BOND
M  V30 END CTAB
M  END
>  <Structure No>
306

>  <Catalog ID>
Z56347480

>  <MW (desalted)>
302.327

>  <ClogP>
0.166

>  <HBD>
3

>  <TPSA>
112.570

>  <RotBonds>
3

>  <Target>
parp1

>  <fromRegid>


>  <Similarity>


$$$$
Compound 307
Actelion Java MolfileCreator 2.0

  0  0  0  0  0  0              0 V3000
M  V30 BEGIN CTAB
M  V30 COUNTS 19 20 0 0 0
M  V30 BEGIN ATOM
M  V30 1 O 0.0 0.0 0.0 0
M  V30 2 C -0.0118 1.5128 0.0 0
M  V30 3 N 1.2764 2.281 0.0 0
M  V30 4 C -1.3237 2.281 0.0 0
M  V30 5 C 2.5647 1.5364 0.0 0
M  V30 6 C -1.3355 3.7938 0.0 0
M  V30 7 C -2.6356 1.5364 0.0 0
M  V30 8 C 3.8529 2.3046 0.0 0
M  V30 9 N -0.0472 4.5502 0.0 0
M  V30 10 C -2.6474 4.5502 0.0 0
M  V30 11 C -3.9475 2.3046 0.0 0
M  V30 12 C -2.6474 0.0472 0.0 0
M  V30 13 C 5.1412 1.5601 0.0 0
M  V30 14 C -3.9593 3.8056 0.0 0
M  V30 15 C 6.4295 2.3283 0.0 0
M  V30 16 C 5.1294 0.0709 0.0 0
M  V30 17 C 7.7177 1.5837 0.0 0
M  V30 18 C 6.4176 -0.6618 0.0 0
M  V30 19 C 7.7059 0.0945 0.0 0
M  V30 END ATOM
M  V30 BEGIN BOND
M  V30 1 2 1 2
M  V30 2 1 2 3
M  V30 3 1 2 4
M  V30 4 1 3 5
M  V30 5 2 4 6
M  V30 6 1 4 7
M  V30 7 1 5 8
M  V30 8 1 6 9
M  V30 9 1 6 10
M  V30 10 2 7 11
M  V30 11 1 7 12
M  V30 12 1 8 13
M  V30 13 2 10 14
M  V30 14 2 13 15
M  V30 15 1 13 16
M  V30 16 1 15 17
M  V30 17 2 16 18
M  V30 18 2 17 19
M  V30 19 1 11 14
M  V30 20 1 18 19
M  V30 END BOND
M  V30 END CTAB
M  END
>  <Structure No>
307

>  <Catalog ID>
Z234895017

>  <MW (desalted)>
254.327

>  <ClogP>
2.810

>  <HBD>
2

>  <TPSA>
55.120

>  <RotBonds>
4

>  <Target>
Poly [ADP-ribose] polymerase-1

>  <fromRegid>
CHEMBL594759

>  <Similarity>
0.88

$$$$
Compound 308
Actelion Java MolfileCreator 2.0

  0  0  0  0  0  0              0 V3000
M  V30 BEGIN CTAB
M  V30 COUNTS 19 21 0 0 0
M  V30 BEGIN ATOM
M  V30 1 O 0.0 0.0 0.0 0
M  V30 2 C 1.2929 -0.7473 0.0 0
M  V30 3 N 2.5859 0.0118 0.0 0
M  V30 4 C 1.2811 -2.2419 0.0 0
M  V30 5 C 3.8789 -0.7354 0.0 0
M  V30 6 C 2.5741 1.5302 0.0 0
M  V30 7 C 2.5741 -2.9892 0.0 0
M  V30 8 C -0.0355 -2.9892 0.0 0
M  V30 9 C 5.1719 0.0237 0.0 0
M  V30 10 C 3.867 2.2894 0.0 0
M  V30 11 C 2.5622 -4.4839 0.0 0
M  V30 12 C -0.0474 -4.4839 0.0 0
M  V30 13 C 5.16 1.542 0.0 0
M  V30 14 C 6.4649 -0.7235 0.0 0
M  V30 15 O 3.8552 -5.2193 0.0 0
M  V30 16 C 1.2455 -5.2193 0.0 0
M  V30 17 C 6.453 2.3012 0.0 0
M  V30 18 C 7.7579 0.0355 0.0 0
M  V30 19 C 7.746 1.5658 0.0 0
M  V30 END ATOM
M  V30 BEGIN BOND
M  V30 1 2 1 2
M  V30 2 1 2 3
M  V30 3 1 2 4
M  V30 4 1 3 5
M  V30 5 1 3 6
M  V30 6 2 4 7
M  V30 7 1 4 8
M  V30 8 1 5 9
M  V30 9 1 6 10
M  V30 10 1 7 11
M  V30 11 2 8 12
M  V30 12 2 9 13
M  V30 13 1 9 14
M  V30 14 1 11 15
M  V30 15 2 11 16
M  V30 16 1 13 17
M  V30 17 2 14 18
M  V30 18 2 17 19
M  V30 19 1 10 13
M  V30 20 1 12 16
M  V30 21 1 18 19
M  V30 END BOND
M  V30 END CTAB
M  END
>  <Structure No>
308

>  <Catalog ID>
Z31444084

>  <MW (desalted)>
253.296

>  <ClogP>
2.954

>  <HBD>
1

>  <TPSA>
40.540

>  <RotBonds>
1

>  <Target>
Poly [ADP-ribose] polymerase-1

>  <fromRegid>
CHEMBL3629676

>  <Similarity>
0.87

$$$$
Compound 309
Actelion Java MolfileCreator 2.0

  0  0  0  0  0  0              0 V3000
M  V30 BEGIN CTAB
M  V30 COUNTS 19 21 0 0 0
M  V30 BEGIN ATOM
M  V30 1 O 0.0 0.0 0.0 0
M  V30 2 C -0.0118 -1.497 0.0 0
M  V30 3 N -1.3307 -2.2337 0.0 0
M  V30 4 C 1.2832 -2.2337 0.0 0
M  V30 5 N -1.3426 -3.7308 0.0 0
M  V30 6 C 1.2713 -3.7308 0.0 0
M  V30 7 C 2.5783 -1.4733 0.0 0
M  V30 8 C -0.0475 -4.4793 0.0 0
M  V30 9 C 2.5664 -4.4793 0.0 0
M  V30 10 C 3.8733 -2.2099 0.0 0
M  V30 11 C -0.0594 -5.9764 0.0 0
M  V30 12 C 3.8615 -3.7189 0.0 0
M  V30 13 C -1.3782 -6.7249 0.0 0
M  V30 14 C 1.2356 -6.7249 0.0 0
M  V30 15 C -1.3901 -8.222 0.0 0
M  V30 16 C 1.2238 -8.222 0.0 0
M  V30 17 C -0.095 -8.9587 0.0 0
M  V30 18 O -0.1069 -10.4557 0.0 0
M  V30 19 C 1.1881 -11.2043 0.0 0
M  V30 END ATOM
M  V30 BEGIN BOND
M  V30 1 2 1 2
M  V30 2 1 2 3
M  V30 3 1 2 4
M  V30 4 1 3 5
M  V30 5 2 4 6
M  V30 6 1 4 7
M  V30 7 2 5 8
M  V30 8 1 6 9
M  V30 9 2 7 10
M  V30 10 1 8 11
M  V30 11 2 9 12
M  V30 12 2 11 13
M  V30 13 1 11 14
M  V30 14 1 13 15
M  V30 15 2 14 16
M  V30 16 2 15 17
M  V30 17 1 17 18
M  V30 18 1 18 19
M  V30 19 1 6 8
M  V30 20 1 10 12
M  V30 21 1 16 17
M  V30 END BOND
M  V30 END CTAB
M  END
>  <Structure No>
309

>  <Catalog ID>
Z275211486

>  <MW (desalted)>
252.268

>  <ClogP>
2.216

>  <HBD>
1

>  <TPSA>
50.690

>  <RotBonds>
2

>  <Target>
parp2

>  <fromRegid>


>  <Similarity>


$$$$
Compound 310
Actelion Java MolfileCreator 2.0

  0  0  0  0  0  0              0 V3000
M  V30 BEGIN CTAB
M  V30 COUNTS 20 20 0 0 0
M  V30 BEGIN ATOM
M  V30 1 Cl 0.0 0.0 0.0 0
M  V30 2 F 11.3372 -5.2469 0.0 0
M  V30 3 C 10.4471 -4.0289 0.0 0
M  V30 4 C 11.0444 -2.6586 0.0 0
M  V30 5 C 8.9596 -4.1694 0.0 0
M  V30 6 C 10.1543 -1.4405 0.0 0
M  V30 7 C 8.0695 -2.9514 0.0 0
M  V30 8 C 8.6668 -1.5811 0.0 0
M  V30 9 N 7.7767 -0.363 0.0 0
M  V30 10 N 8.2218 1.0657 0.0 0
M  V30 11 C 6.2776 -0.3513 0.0 0
M  V30 12 C 7.0037 1.9559 0.0 0
M  V30 13 N 5.3875 -1.5459 0.0 0
M  V30 14 C 5.8091 1.0775 0.0 0
M  V30 15 C 6.992 3.455 0.0 0
M  V30 16 C 4.3802 1.5459 0.0 0
M  V30 17 C 5.692 4.2046 0.0 0
M  V30 18 N 2.9514 2.0144 0.0 0
M  V30 19 C 5.6803 5.7037 0.0 0
M  V30 20 N 4.3802 6.4533 0.0 0
M  V30 END ATOM
M  V30 BEGIN BOND
M  V30 1 1 2 3
M  V30 2 2 3 4
M  V30 3 1 3 5
M  V30 4 1 4 6
M  V30 5 2 5 7
M  V30 6 2 6 8
M  V30 7 1 8 9
M  V30 8 1 9 10
M  V30 9 1 9 11
M  V30 10 2 10 12
M  V30 11 1 11 13
M  V30 12 2 11 14
M  V30 13 1 12 15
M  V30 14 1 14 16
M  V30 15 1 15 17
M  V30 16 3 16 18
M  V30 17 1 17 19
M  V30 18 1 19 20
M  V30 19 1 7 8
M  V30 20 1 12 14
M  V30 END BOND
M  V30 END CTAB
M  END
>  <Structure No>
310

>  <Catalog ID>
Z361907536

>  <MW (desalted)>
259.282

>  <ClogP>
1.005

>  <HBD>
2

>  <TPSA>
93.650

>  <RotBonds>
4

>  <Target>
CHK1

>  <fromRegid>


>  <Similarity>


$$$$
Compound 311
Actelion Java MolfileCreator 2.0

  0  0  0  0  0  0              0 V3000
M  V30 BEGIN CTAB
M  V30 COUNTS 19 21 0 0 0
M  V30 BEGIN ATOM
M  V30 1 Cl 0.0 0.0 0.0 0
M  V30 2 C 1.4946 0.0118 0.0 0
M  V30 3 C 2.2419 -1.2811 0.0 0
M  V30 4 C 2.2419 1.3285 0.0 0
M  V30 5 C 3.7365 -1.2692 0.0 0
M  V30 6 C 3.7365 1.3404 0.0 0
M  V30 7 C 4.472 0.0474 0.0 0
M  V30 8 C 5.9666 0.0593 0.0 0
M  V30 9 N 6.8444 1.2929 0.0 0
M  V30 10 N 6.8444 -1.1506 0.0 0
M  V30 11 C 8.2679 0.8422 0.0 0
M  V30 12 C 8.2679 -0.6761 0.0 0
M  V30 13 C 9.5608 1.6013 0.0 0
M  V30 14 C 9.5608 -1.4115 0.0 0
M  V30 15 C 10.8538 0.8659 0.0 0
M  V30 16 C 10.8538 -0.6524 0.0 0
M  V30 17 C 12.1468 1.6251 0.0 0
M  V30 18 O 12.1349 3.1434 0.0 0
M  V30 19 O 13.4397 0.8896 0.0 0
M  V30 END ATOM
M  V30 BEGIN BOND
M  V30 1 1 1 2
M  V30 2 2 2 3
M  V30 3 1 2 4
M  V30 4 1 3 5
M  V30 5 2 4 6
M  V30 6 2 5 7
M  V30 7 1 7 8
M  V30 8 2 8 9
M  V30 9 1 8 10
M  V30 10 1 9 11
M  V30 11 1 10 12
M  V30 12 1 11 13
M  V30 13 1 12 14
M  V30 14 2 13 15
M  V30 15 2 14 16
M  V30 16 1 15 17
M  V30 17 2 17 18
M  V30 18 1 17 19
M  V30 19 1 6 7
M  V30 20 2 11 12
M  V30 21 1 15 16
M  V30 END BOND
M  V30 END CTAB
M  END
>  <Structure No>
311

>  <Catalog ID>
Z394629336

>  <MW (desalted)>
272.686

>  <ClogP>
4.451

>  <HBD>
2

>  <TPSA>
65.980

>  <RotBonds>
2

>  <Target>
Serine/threonine-protein kinase Chk2

>  <fromRegid>
CHEMBL208463

>  <Similarity>
0.86

$$$$
Compound 312
Actelion Java MolfileCreator 2.0

  0  0  0  0  0  0              0 V3000
M  V30 BEGIN CTAB
M  V30 COUNTS 19 21 0 0 0
M  V30 BEGIN ATOM
M  V30 1 S 0.0 0.0 0.0 0
M  V30 2 C -1.313 0.7688 0.0 0
M  V30 3 C 1.2893 0.7688 0.0 0
M  V30 4 N -1.4786 2.2711 0.0 0
M  V30 5 N -2.697 0.1656 0.0 0
M  V30 6 C 2.5787 0.0236 0.0 0
M  V30 7 N -2.9572 2.5905 0.0 0
M  V30 8 C -3.7143 1.2893 0.0 0
M  V30 9 N 3.868 0.7925 0.0 0
M  V30 10 N 2.5669 -1.4668 0.0 0
M  V30 11 N -5.2166 1.1474 0.0 0
M  V30 12 C 5.1574 0.0473 0.0 0
M  V30 13 C 3.8562 -2.212 0.0 0
M  V30 14 C 5.1456 -1.4431 0.0 0
M  V30 15 C 6.4468 0.8162 0.0 0
M  V30 16 O 3.8444 -3.7024 0.0 0
M  V30 17 C 6.435 -2.1883 0.0 0
M  V30 18 C 7.7361 0.0709 0.0 0
M  V30 19 C 7.7243 -1.4194 0.0 0
M  V30 END ATOM
M  V30 BEGIN BOND
M  V30 1 1 1 2
M  V30 2 1 1 3
M  V30 3 2 2 4
M  V30 4 1 2 5
M  V30 5 1 3 6
M  V30 6 1 4 7
M  V30 7 1 5 8
M  V30 8 2 6 9
M  V30 9 1 6 10
M  V30 10 1 8 11
M  V30 11 1 9 12
M  V30 12 1 10 13
M  V30 13 2 12 14
M  V30 14 1 12 15
M  V30 15 2 13 16
M  V30 16 1 14 17
M  V30 17 2 15 18
M  V30 18 2 17 19
M  V30 19 2 7 8
M  V30 20 1 13 14
M  V30 21 1 18 19
M  V30 END BOND
M  V30 END CTAB
M  END
>  <Structure No>
312

>  <Catalog ID>
Z18356172

>  <MW (desalted)>
274.302

>  <ClogP>
-0.213

>  <HBD>
3

>  <TPSA>
109.050

>  <RotBonds>
3

>  <Target>
parp1

>  <fromRegid>


>  <Similarity>


$$$$
Compound 313
Actelion Java MolfileCreator 2.0

  0  0  0  0  0  0              0 V3000
M  V30 BEGIN CTAB
M  V30 COUNTS 19 20 0 0 0
M  V30 BEGIN ATOM
M  V30 1 S 0.0 0.0 0.0 0
M  V30 2 O -1.5118 0.0118 0.0 0
M  V30 3 O 1.4882 0.0118 0.0 0
M  V30 4 N -0.0118 -1.4882 0.0 0
M  V30 5 C -0.0118 1.5118 0.0 0
M  V30 6 C -1.3229 -2.2205 0.0 0
M  V30 7 C -1.3347 -3.7088 0.0 0
M  V30 8 N -2.6458 -4.4529 0.0 0
M  V30 9 C -2.6576 -5.9412 0.0 0
M  V30 10 O -1.3701 -6.6735 0.0 0
M  V30 11 C -3.9687 -6.6735 0.0 0
M  V30 12 C -5.2798 -5.9176 0.0 0
M  V30 13 C -3.9805 -8.1618 0.0 0
M  V30 14 C -6.5909 -6.6499 0.0 0
M  V30 15 C -5.2916 -8.8941 0.0 0
M  V30 16 C -6.6027 -8.1382 0.0 0
M  V30 17 C -8.0319 -6.1774 0.0 0
M  V30 18 N -8.0437 -8.587 0.0 0
M  V30 19 C -8.9296 -7.3822 0.0 0
M  V30 END ATOM
M  V30 BEGIN BOND
M  V30 1 2 1 2
M  V30 2 2 1 3
M  V30 3 1 1 4
M  V30 4 1 1 5
M  V30 5 1 4 6
M  V30 6 1 6 7
M  V30 7 1 7 8
M  V30 8 1 8 9
M  V30 9 2 9 10
M  V30 10 1 9 11
M  V30 11 2 11 12
M  V30 12 1 11 13
M  V30 13 1 12 14
M  V30 14 2 13 15
M  V30 15 2 14 16
M  V30 16 1 14 17
M  V30 17 1 16 18
M  V30 18 1 17 19
M  V30 19 1 15 16
M  V30 20 1 18 19
M  V30 END BOND
M  V30 END CTAB
M  END
>  <Structure No>
313

>  <Catalog ID>
Z431571492

>  <MW (desalted)>
283.347

>  <ClogP>
0.399

>  <HBD>
3

>  <TPSA>
87.300

>  <RotBonds>
4

>  <Target>
ATM

>  <fromRegid>


>  <Similarity>


$$$$
Compound 314
Actelion Java MolfileCreator 2.0

  0  0  0  0  0  0              0 V3000
M  V30 BEGIN CTAB
M  V30 COUNTS 26 29 0 0 0
M  V30 BEGIN ATOM
M  V30 1 O 0.0 0.0 0.0 0
M  V30 2 C -0.0118 -1.4972 0.0 0
M  V30 3 N -1.3308 -2.2339 0.0 0
M  V30 4 C 1.2833 -2.2339 0.0 0
M  V30 5 N -1.3427 -3.7311 0.0 0
M  V30 6 C 1.2714 -3.7311 0.0 0
M  V30 7 C 2.5785 -1.4734 0.0 0
M  V30 8 C -0.0475 -4.4797 0.0 0
M  V30 9 C 2.5666 -4.4797 0.0 0
M  V30 10 C 3.8737 -2.2101 0.0 0
M  V30 11 C -0.0594 -5.9769 0.0 0
M  V30 12 C 3.8618 -3.7192 0.0 0
M  V30 13 O -1.3783 -6.7255 0.0 0
M  V30 14 N 1.2357 -6.7255 0.0 0
M  V30 15 C 2.5309 -5.9531 0.0 0
M  V30 16 C 1.2239 -8.2227 0.0 0
M  V30 17 C 3.8262 -6.7017 0.0 0
M  V30 18 C 2.5191 -8.9594 0.0 0
M  V30 19 N 3.8143 -8.199 0.0 0
M  V30 20 C 5.1095 -8.9357 0.0 0
M  V30 21 C 5.0976 -10.4329 0.0 0
M  V30 22 C 6.3928 -11.1815 0.0 0
M  V30 23 C 3.7786 -11.1815 0.0 0
M  V30 24 C 6.3809 -12.6787 0.0 0
M  V30 25 C 3.7667 -12.6787 0.0 0
M  V30 26 C 5.0619 -13.4154 0.0 0
M  V30 END ATOM
M  V30 BEGIN BOND
M  V30 1 2 1 2
M  V30 2 1 2 3
M  V30 3 1 2 4
M  V30 4 1 3 5
M  V30 5 2 4 6
M  V30 6 1 4 7
M  V30 7 2 5 8
M  V30 8 1 6 9
M  V30 9 2 7 10
M  V30 10 1 8 11
M  V30 11 2 9 12
M  V30 12 2 11 13
M  V30 13 1 11 14
M  V30 14 1 14 15
M  V30 15 1 14 16
M  V30 16 1 15 17
M  V30 17 1 16 18
M  V30 18 1 17 19
M  V30 19 1 19 20
M  V30 20 1 20 21
M  V30 21 2 21 22
M  V30 22 1 21 23
M  V30 23 1 22 24
M  V30 24 2 23 25
M  V30 25 2 24 26
M  V30 26 1 6 8
M  V30 27 1 10 12
M  V30 28 1 18 19
M  V30 29 1 25 26
M  V30 END BOND
M  V30 END CTAB
M  END
>  <Structure No>
314

>  <Catalog ID>
Z27763786

>  <MW (desalted)>
348.398

>  <ClogP>
1.187

>  <HBD>
1

>  <TPSA>
65.010

>  <RotBonds>
3

>  <Target>
Poly [ADP-ribose] polymerase-1

>  <fromRegid>
CHEMBL3105422

>  <Similarity>
0.88

$$$$
Compound 315
Actelion Java MolfileCreator 2.0

  0  0  0  0  0  0              0 V3000
M  V30 BEGIN CTAB
M  V30 COUNTS 21 21 0 0 0
M  V30 BEGIN ATOM
M  V30 1 Cl 0.0 0.0 0.0 0
M  V30 2 Cl 3.5969 0.0946 0.0 0
M  V30 3 S -0.7572 -7.3832 0.0 0
M  V30 4 O 0.7335 -7.3713 0.0 0
M  V30 5 O -2.2717 -7.3713 0.0 0
M  V30 6 N -0.769 -8.874 0.0 0
M  V30 7 C -0.769 -5.8686 0.0 0
M  V30 8 C 0.5206 -9.6194 0.0 0
M  V30 9 C -2.0824 -9.6194 0.0 0
M  V30 10 C 0.5206 -5.1114 0.0 0
M  V30 11 C -2.0824 -5.1114 0.0 0
M  V30 12 C 0.5087 -11.1102 0.0 0
M  V30 13 C -2.0942 -11.1102 0.0 0
M  V30 14 C 0.5087 -3.5969 0.0 0
M  V30 15 C 1.8103 -5.845 0.0 0
M  V30 16 C -2.0942 -3.5969 0.0 0
M  V30 17 N -0.8045 -11.8438 0.0 0
M  V30 18 C 1.7984 -2.8396 0.0 0
M  V30 19 C -0.8045 -2.8396 0.0 0
M  V30 20 C 3.0999 -5.0877 0.0 0
M  V30 21 N 3.0881 -3.5851 0.0 0
M  V30 END ATOM
M  V30 BEGIN BOND
M  V30 1 2 3 4
M  V30 2 2 3 5
M  V30 3 1 3 6
M  V30 4 1 3 7
M  V30 5 1 6 8
M  V30 6 1 6 9
M  V30 7 1 7 10
M  V30 8 2 7 11
M  V30 9 1 8 12
M  V30 10 1 9 13
M  V30 11 1 10 14
M  V30 12 2 10 15
M  V30 13 1 11 16
M  V30 14 1 12 17
M  V30 15 2 14 18
M  V30 16 1 14 19
M  V30 17 1 15 20
M  V30 18 1 18 21
M  V30 19 1 13 17
M  V30 20 2 16 19
M  V30 21 2 20 21
M  V30 END BOND
M  V30 END CTAB
M  END
>  <Structure No>
315

>  <Catalog ID>
Z2417559498

>  <MW (desalted)>
277.342

>  <ClogP>
1.058

>  <HBD>
1

>  <TPSA>
62.300

>  <RotBonds>
1

>  <Target>
Serine/threonine-protein kinase Chk2

>  <fromRegid>
CHEMBL38380

>  <Similarity>
0.91

$$$$
Compound 316
Actelion Java MolfileCreator 2.0

  0  0  0  0  0  0              0 V3000
M  V30 BEGIN CTAB
M  V30 COUNTS 20 21 0 0 0
M  V30 BEGIN ATOM
M  V30 1 Cl 0.0 0.0 0.0 0
M  V30 2 O 11.3599 2.8399 0.0 0
M  V30 3 C 11.8096 1.4199 0.0 0
M  V30 4 N 10.9103 0.2129 0.0 0
M  V30 5 C 13.2296 0.9703 0.0 0
M  V30 6 C 11.7859 -0.9939 0.0 0
M  V30 7 C 9.3956 0.2248 0.0 0
M  V30 8 C 13.2178 -0.5206 0.0 0
M  V30 9 C 14.5194 1.7276 0.0 0
M  V30 10 O 11.3126 -2.4139 0.0 0
M  V30 11 C 8.6383 1.5383 0.0 0
M  V30 12 C 8.6383 -1.0649 0.0 0
M  V30 13 C 14.5076 -1.2543 0.0 0
M  V30 14 C 15.8093 0.9939 0.0 0
M  V30 15 C 7.1236 1.5501 0.0 0
M  V30 16 C 7.1236 -1.0531 0.0 0
M  V30 17 C 15.7974 -0.4969 0.0 0
M  V30 18 C 6.3663 0.2603 0.0 0
M  V30 19 N 4.8516 0.2721 0.0 0
M  V30 20 C 4.0943 -1.0176 0.0 0
M  V30 END ATOM
M  V30 BEGIN BOND
M  V30 1 2 2 3
M  V30 2 1 3 4
M  V30 3 1 3 5
M  V30 4 1 4 6
M  V30 5 1 4 7
M  V30 6 2 5 8
M  V30 7 1 5 9
M  V30 8 2 6 10
M  V30 9 1 7 11
M  V30 10 1 7 12
M  V30 11 1 8 13
M  V30 12 2 9 14
M  V30 13 1 11 15
M  V30 14 1 12 16
M  V30 15 2 13 17
M  V30 16 1 15 18
M  V30 17 1 18 19
M  V30 18 1 19 20
M  V30 19 1 6 8
M  V30 20 1 14 17
M  V30 21 1 16 18
M  V30 END BOND
M  V30 END CTAB
M  END
>  <Structure No>
316

>  <Catalog ID>
Z2969284610

>  <MW (desalted)>
258.316

>  <ClogP>
1.614

>  <HBD>
1

>  <TPSA>
49.410

>  <RotBonds>
2

>  <Target>
Poly [ADP-ribose] polymerase-1

>  <fromRegid>
CHEMBL597888

>  <Similarity>
0.91

$$$$
Compound 317
Actelion Java MolfileCreator 2.0

  0  0  0  0  0  0              0 V3000
M  V30 BEGIN CTAB
M  V30 COUNTS 19 21 0 0 0
M  V30 BEGIN ATOM
M  V30 1 O 0.0 0.0 0.0 0
M  V30 2 C 1.2873 -0.744 0.0 0
M  V30 3 N 1.2755 -2.2322 0.0 0
M  V30 4 C 2.5747 0.0118 0.0 0
M  V30 5 C -0.0354 -2.9644 0.0 0
M  V30 6 C 2.5629 1.5235 0.0 0
M  V30 7 C 3.862 -0.7322 0.0 0
M  V30 8 C -1.3464 -2.2085 0.0 0
M  V30 9 C -0.0472 -4.4526 0.0 0
M  V30 10 C 3.8502 2.2794 0.0 0
M  V30 11 C 5.1494 0.0236 0.0 0
M  V30 12 C -2.6574 -2.9408 0.0 0
M  V30 13 C -1.3582 -5.1848 0.0 0
M  V30 14 N 3.8384 3.7912 0.0 0
M  V30 15 C 5.1376 1.5471 0.0 0
M  V30 16 C -2.6692 -4.429 0.0 0
M  V30 17 C -4.0983 -2.4684 0.0 0
M  V30 18 N -4.1101 -4.8778 0.0 0
M  V30 19 N -4.9959 -3.6731 0.0 0
M  V30 END ATOM
M  V30 BEGIN BOND
M  V30 1 2 1 2
M  V30 2 1 2 3
M  V30 3 1 2 4
M  V30 4 1 3 5
M  V30 5 2 4 6
M  V30 6 1 4 7
M  V30 7 2 5 8
M  V30 8 1 5 9
M  V30 9 1 6 10
M  V30 10 2 7 11
M  V30 11 1 8 12
M  V30 12 2 9 13
M  V30 13 1 10 14
M  V30 14 2 10 15
M  V30 15 2 12 16
M  V30 16 1 12 17
M  V30 17 1 16 18
M  V30 18 2 17 19
M  V30 19 1 11 15
M  V30 20 1 13 16
M  V30 21 1 18 19
M  V30 END BOND
M  V30 END CTAB
M  END
>  <Structure No>
317

>  <Catalog ID>
Z445431098

>  <MW (desalted)>
252.271

>  <ClogP>
1.812

>  <HBD>
3

>  <TPSA>
83.800

>  <RotBonds>
2

>  <Target>
Serine/threonine-protein kinase Chk2

>  <fromRegid>
CHEMBL1973808

>  <Similarity>
0.87

$$$$
Compound 318
Actelion Java MolfileCreator 2.0

  0  0  0  0  0  0              0 V3000
M  V30 BEGIN CTAB
M  V30 COUNTS 19 21 0 0 0
M  V30 BEGIN ATOM
M  V30 1 O 0.0 0.0 0.0 0
M  V30 2 C 1.2881 -0.7445 0.0 0
M  V30 3 N 1.2763 -2.2335 0.0 0
M  V30 4 C 2.5762 0.0236 0.0 0
M  V30 5 C -0.0354 -2.9662 0.0 0
M  V30 6 C 3.8643 -0.7208 0.0 0
M  V30 7 C 2.5644 1.5363 0.0 0
M  V30 8 C -1.3472 -2.2099 0.0 0
M  V30 9 C -0.0472 -4.4552 0.0 0
M  V30 10 C 5.1525 0.0472 0.0 0
M  V30 11 C 3.8525 2.2926 0.0 0
M  V30 12 C -2.6589 -2.9426 0.0 0
M  V30 13 C -1.359 -5.1879 0.0 0
M  V30 14 C 5.1407 1.5599 0.0 0
M  V30 15 N -4.1007 -2.4699 0.0 0
M  V30 16 C -2.6708 -4.4316 0.0 0
M  V30 17 N 6.4288 2.3162 0.0 0
M  V30 18 N -4.9988 -3.6753 0.0 0
M  V30 19 C -4.1125 -4.8807 0.0 0
M  V30 END ATOM
M  V30 BEGIN BOND
M  V30 1 2 1 2
M  V30 2 1 2 3
M  V30 3 1 2 4
M  V30 4 1 3 5
M  V30 5 2 4 6
M  V30 6 1 4 7
M  V30 7 2 5 8
M  V30 8 1 5 9
M  V30 9 1 6 10
M  V30 10 2 7 11
M  V30 11 1 8 12
M  V30 12 2 9 13
M  V30 13 2 10 14
M  V30 14 1 12 15
M  V30 15 2 12 16
M  V30 16 1 14 17
M  V30 17 1 15 18
M  V30 18 1 16 19
M  V30 19 1 11 14
M  V30 20 1 13 16
M  V30 21 2 18 19
M  V30 END BOND
M  V30 END CTAB
M  END
>  <Structure No>
318

>  <Catalog ID>
Z445469452

>  <MW (desalted)>
252.271

>  <ClogP>
1.812

>  <HBD>
3

>  <TPSA>
83.800

>  <RotBonds>
2

>  <Target>
Serine/threonine-protein kinase Chk2

>  <fromRegid>
CHEMBL1973808

>  <Similarity>
0.87

$$$$
Compound 319
Actelion Java MolfileCreator 2.0

  0  0  0  0  0  0              0 V3000
M  V30 BEGIN CTAB
M  V30 COUNTS 19 21 0 0 0
M  V30 BEGIN ATOM
M  V30 1 O 0.0 0.0 0.0 0
M  V30 2 C 1.2907 -0.746 0.0 0
M  V30 3 N 2.5815 0.0236 0.0 0
M  V30 4 C 1.2789 -2.2381 0.0 0
M  V30 5 C 3.8723 -0.7223 0.0 0
M  V30 6 C 2.5697 1.5394 0.0 0
M  V30 7 N 0.0473 -3.1144 0.0 0
M  V30 8 C 2.4868 -3.1144 0.0 0
M  V30 9 C 5.1631 0.0473 0.0 0
M  V30 10 C 3.8605 2.3092 0.0 0
M  V30 11 C 0.4973 -4.5355 0.0 0
M  V30 12 C 2.0131 -4.5355 0.0 0
M  V30 13 C 5.1513 1.5631 0.0 0
M  V30 14 C 6.4539 -0.6986 0.0 0
M  V30 15 O 2.8894 -5.7434 0.0 0
M  V30 16 C 6.4421 2.3329 0.0 0
M  V30 17 C 7.7447 0.071 0.0 0
M  V30 18 C 7.7329 1.5868 0.0 0
M  V30 19 O 9.0355 -0.675 0.0 0
M  V30 END ATOM
M  V30 BEGIN BOND
M  V30 1 2 1 2
M  V30 2 1 2 3
M  V30 3 1 2 4
M  V30 4 1 3 5
M  V30 5 1 3 6
M  V30 6 1 4 7
M  V30 7 1 4 8
M  V30 8 1 5 9
M  V30 9 1 6 10
M  V30 10 1 7 11
M  V30 11 1 8 12
M  V30 12 2 9 13
M  V30 13 1 9 14
M  V30 14 1 12 15
M  V30 15 1 13 16
M  V30 16 2 14 17
M  V30 17 2 16 18
M  V30 18 1 17 19
M  V30 19 1 10 13
M  V30 20 1 11 12
M  V30 21 1 17 18
M  V30 END BOND
M  V30 END CTAB
M  END
>  <Structure No>
319

>  <Catalog ID>
Z608650148

>  <MW (desalted)>
262.304

>  <ClogP>
-0.557

>  <HBD>
3

>  <TPSA>
72.800

>  <RotBonds>
1

>  <Target>
CHK2

>  <fromRegid>


>  <Similarity>


$$$$
Compound 320
Actelion Java MolfileCreator 2.0

  0  0  0  0  0  0              0 V3000
M  V30 BEGIN CTAB
M  V30 COUNTS 19 21 0 0 0
M  V30 BEGIN ATOM
M  V30 1 Br 0.0 0.0 0.0 0
M  V30 2 C -1.3082 -0.7307 0.0 0
M  V30 3 C -1.32 -2.2158 0.0 0
M  V30 4 C -2.6165 0.0235 0.0 0
M  V30 5 C -2.6283 -2.9583 0.0 0
M  V30 6 C -3.9248 -0.7071 0.0 0
M  V30 7 C -3.9365 -2.1922 0.0 0
M  V30 8 C -5.2448 -2.9347 0.0 0
M  V30 9 O -6.5531 -2.1686 0.0 0
M  V30 10 N -5.2566 -4.4198 0.0 0
M  V30 11 C -6.5649 -5.1505 0.0 0
M  V30 12 C -7.8731 -4.3962 0.0 0
M  V30 13 C -6.5766 -6.6356 0.0 0
M  V30 14 C -9.1814 -5.1269 0.0 0
M  V30 15 C -7.8849 -7.3663 0.0 0
M  V30 16 C -9.1932 -6.612 0.0 0
M  V30 17 C -10.6193 -4.6555 0.0 0
M  V30 18 N -10.6311 -7.0599 0.0 0
M  V30 19 N -11.5151 -5.8577 0.0 0
M  V30 END ATOM
M  V30 BEGIN BOND
M  V30 1 1 1 2
M  V30 2 2 2 3
M  V30 3 1 2 4
M  V30 4 1 3 5
M  V30 5 2 4 6
M  V30 6 2 5 7
M  V30 7 1 7 8
M  V30 8 2 8 9
M  V30 9 1 8 10
M  V30 10 1 10 11
M  V30 11 2 11 12
M  V30 12 1 11 13
M  V30 13 1 12 14
M  V30 14 2 13 15
M  V30 15 2 14 16
M  V30 16 1 14 17
M  V30 17 1 16 18
M  V30 18 2 17 19
M  V30 19 1 6 7
M  V30 20 1 15 16
M  V30 21 1 18 19
M  V30 END BOND
M  V30 END CTAB
M  END
>  <Structure No>
320

>  <Catalog ID>
Z237450076

>  <MW (desalted)>
316.153

>  <ClogP>
3.653

>  <HBD>
2

>  <TPSA>
57.780

>  <RotBonds>
2

>  <Target>
Serine/threonine-protein kinase Chk2

>  <fromRegid>
CHEMBL1973808

>  <Similarity>
0.85

$$$$
Compound 321
Actelion Java MolfileCreator 2.0

  0  0  0  0  0  0              0 V3000
M  V30 BEGIN CTAB
M  V30 COUNTS 19 21 0 0 0
M  V30 BEGIN ATOM
M  V30 1 O 0.0 0.0 0.0 0
M  V30 2 C -1.311 -0.744 0.0 0
M  V30 3 N -1.3228 -2.2322 0.0 0
M  V30 4 C -2.622 0.0236 0.0 0
M  V30 5 C -0.0354 -2.9645 0.0 0
M  V30 6 N -2.7874 1.5236 0.0 0
M  V30 7 C -4.0039 -0.5787 0.0 0
M  V30 8 C -0.0472 -4.4527 0.0 0
M  V30 9 C -4.2637 1.8425 0.0 0
M  V30 10 C -5.0196 0.5433 0.0 0
M  V30 11 C -1.3582 -5.185 0.0 0
M  V30 12 C 1.2401 -5.185 0.0 0
M  V30 13 O -6.5196 0.4015 0.0 0
M  V30 14 O -2.7992 -4.7126 0.0 0
M  V30 15 C -1.37 -6.6732 0.0 0
M  V30 16 C 1.2283 -6.6732 0.0 0
M  V30 17 C -3.6968 -5.9173 0.0 0
M  V30 18 O -2.811 -7.122 0.0 0
M  V30 19 C -0.0826 -7.4055 0.0 0
M  V30 END ATOM
M  V30 BEGIN BOND
M  V30 1 2 1 2
M  V30 2 1 2 3
M  V30 3 1 2 4
M  V30 4 1 3 5
M  V30 5 1 4 6
M  V30 6 1 4 7
M  V30 7 1 5 8
M  V30 8 1 6 9
M  V30 9 1 7 10
M  V30 10 2 8 11
M  V30 11 1 8 12
M  V30 12 1 10 13
M  V30 13 1 11 14
M  V30 14 1 11 15
M  V30 15 2 12 16
M  V30 16 1 14 17
M  V30 17 1 15 18
M  V30 18 2 15 19
M  V30 19 1 9 10
M  V30 20 1 16 19
M  V30 21 1 17 18
M  V30 END BOND
M  V30 END CTAB
M  END
>  <Structure No>
321

>  <Catalog ID>
Z764449088

>  <MW (desalted)>
264.277

>  <ClogP>
-0.048

>  <HBD>
3

>  <TPSA>
79.820

>  <RotBonds>
3

>  <Target>
CHK2

>  <fromRegid>


>  <Similarity>


$$$$
Compound 322
Actelion Java MolfileCreator 2.0

  0  0  0  0  0  0              0 V3000
M  V30 BEGIN CTAB
M  V30 COUNTS 19 20 0 0 0
M  V30 BEGIN ATOM
M  V30 1 O 0.0 0.0 0.0 0
M  V30 2 C -0.0117 1.5073 0.0 0
M  V30 3 N 1.2718 2.2728 0.0 0
M  V30 4 C -1.3189 2.2728 0.0 0
M  V30 5 C 1.26 3.7801 0.0 0
M  V30 6 C 2.5554 1.5309 0.0 0
M  V30 7 C -1.3307 3.7801 0.0 0
M  V30 8 C -2.6261 1.5309 0.0 0
M  V30 9 C 2.5436 4.5338 0.0 0 CFG=2
M  V30 10 C 3.839 2.2963 0.0 0
M  V30 11 C -2.6378 4.5338 0.0 0
M  V30 12 C -0.0471 4.5338 0.0 0
M  V30 13 C -3.9332 2.2963 0.0 0
M  V30 14 C 3.8272 3.7919 0.0 0
M  V30 15 C 2.5318 6.0412 0.0 0
M  V30 16 C -3.945 3.7919 0.0 0
M  V30 17 C -2.6496 6.0412 0.0 0
M  V30 18 N 3.8155 6.7948 0.0 0
M  V30 19 C 3.8037 8.3022 0.0 0
M  V30 END ATOM
M  V30 BEGIN BOND
M  V30 1 2 1 2
M  V30 2 1 2 3
M  V30 3 1 2 4
M  V30 4 1 3 5
M  V30 5 1 3 6
M  V30 6 2 4 7
M  V30 7 1 4 8
M  V30 8 1 5 9
M  V30 9 1 6 10
M  V30 10 1 7 11
M  V30 11 1 7 12
M  V30 12 2 8 13
M  V30 13 1 9 14
M  V30 14 1 9 15 CFG=1
M  V30 15 2 11 16
M  V30 16 1 11 17
M  V30 17 1 15 18
M  V30 18 1 18 19
M  V30 19 1 10 14
M  V30 20 1 13 16
M  V30 END BOND
M  V30 BEGIN COLLECTION
M  V30 MDLV30/STERAC1 ATOMS=(1 9)
M  V30 END COLLECTION
M  V30 END CTAB
M  END
>  <Structure No>
322

>  <Catalog ID>
Z763760412

>  <MW (desalted)>
260.375

>  <ClogP>
1.526

>  <HBD>
1

>  <TPSA>
32.340

>  <RotBonds>
3

>  <Target>
Poly [ADP-ribose] polymerase-1

>  <fromRegid>
CHEMBL598093

>  <Similarity>
0.9

$$$$
Compound 323
Actelion Java MolfileCreator 2.0

  0  0  0  0  0  0              0 V3000
M  V30 BEGIN CTAB
M  V30 COUNTS 19 21 0 0 0
M  V30 BEGIN ATOM
M  V30 1 O 0.0 0.0 0.0 0
M  V30 2 C -0.0118 -1.491 0.0 0
M  V30 3 N -1.3253 -2.2246 0.0 0
M  V30 4 C 1.278 -2.2246 0.0 0 CFG=1
M  V30 5 C -2.6388 -1.4673 0.0 0
M  V30 6 O 1.2661 -3.7156 0.0 0
M  V30 7 C 2.5678 -1.4673 0.0 0
M  V30 8 C -3.9523 -2.201 0.0 0
M  V30 9 C 2.556 -4.4493 0.0 0
M  V30 10 N 3.8577 -2.201 0.0 0
M  V30 11 C -5.2658 -1.4436 0.0 0
M  V30 12 C -3.9642 -3.692 0.0 0
M  V30 13 C 3.8458 -3.692 0.0 0
M  V30 14 C -6.5793 -2.1773 0.0 0
M  V30 15 C -5.2777 -4.4257 0.0 0
M  V30 16 O -8.023 -1.704 0.0 0
M  V30 17 C -6.5912 -3.6683 0.0 0
M  V30 18 C -8.9224 -2.911 0.0 0
M  V30 19 O -8.0349 -4.118 0.0 0
M  V30 END ATOM
M  V30 BEGIN BOND
M  V30 1 2 1 2
M  V30 2 1 2 3
M  V30 3 1 4 2 CFG=3
M  V30 4 1 3 5
M  V30 5 1 4 6
M  V30 6 1 4 7
M  V30 7 1 5 8
M  V30 8 1 6 9
M  V30 9 1 7 10
M  V30 10 2 8 11
M  V30 11 1 8 12
M  V30 12 1 9 13
M  V30 13 1 11 14
M  V30 14 2 12 15
M  V30 15 1 14 16
M  V30 16 2 14 17
M  V30 17 1 16 18
M  V30 18 1 17 19
M  V30 19 1 10 13
M  V30 20 1 15 17
M  V30 21 1 18 19
M  V30 END BOND
M  V30 BEGIN COLLECTION
M  V30 MDLV30/STERAC1 ATOMS=(1 4)
M  V30 END COLLECTION
M  V30 END CTAB
M  END
>  <Structure No>
323

>  <Catalog ID>
Z854100992

>  <MW (desalted)>
264.277

>  <ClogP>
0.662

>  <HBD>
2

>  <TPSA>
68.820

>  <RotBonds>
3

>  <Target>
CHK2

>  <fromRegid>


>  <Similarity>


$$$$
Compound 324
Actelion Java MolfileCreator 2.0

  0  0  0  0  0  0              0 V3000
M  V30 BEGIN CTAB
M  V30 COUNTS 19 21 0 0 0
M  V30 BEGIN ATOM
M  V30 1 O 0.0 0.0 0.0 0
M  V30 2 C -0.0117 1.506 0.0 0
M  V30 3 N -1.3178 2.2708 0.0 0
M  V30 4 C 1.2707 2.2708 0.0 0
M  V30 5 C -1.3295 3.7769 0.0 0
M  V30 6 C 1.2589 3.7769 0.0 0
M  V30 7 C 2.5532 1.5296 0.0 0
M  V30 8 N -0.047 4.5417 0.0 0
M  V30 9 C -2.6356 4.5417 0.0 0
M  V30 10 C 2.5415 4.5417 0.0 0
M  V30 11 C 3.8358 2.2944 0.0 0
M  V30 12 N -3.9417 3.8005 0.0 0
M  V30 13 C 3.824 3.8005 0.0 0
M  V30 14 C -5.2477 4.5653 0.0 0
M  V30 15 C -3.9534 2.3179 0.0 0
M  V30 16 C -6.5538 3.824 0.0 0
M  V30 17 C -5.2595 1.5766 0.0 0
M  V30 18 C -6.5655 2.3414 0.0 0
M  V30 19 O -7.8716 1.6002 0.0 0
M  V30 END ATOM
M  V30 BEGIN BOND
M  V30 1 2 1 2
M  V30 2 1 2 3
M  V30 3 1 2 4
M  V30 4 1 3 5
M  V30 5 2 4 6
M  V30 6 1 4 7
M  V30 7 2 5 8
M  V30 8 1 5 9
M  V30 9 1 6 10
M  V30 10 2 7 11
M  V30 11 1 9 12
M  V30 12 2 10 13
M  V30 13 1 12 14
M  V30 14 1 12 15
M  V30 15 1 14 16
M  V30 16 1 15 17
M  V30 17 1 16 18
M  V30 18 1 18 19
M  V30 19 1 6 8
M  V30 20 1 11 13
M  V30 21 1 17 18
M  V30 END BOND
M  V30 END CTAB
M  END
>  <Structure No>
324

>  <Catalog ID>
Z44471823

>  <MW (desalted)>
259.304

>  <ClogP>
-0.755

>  <HBD>
2

>  <TPSA>
64.930

>  <RotBonds>
2

>  <Target>
ATM

>  <fromRegid>


>  <Similarity>


$$$$
Compound 325
Actelion Java MolfileCreator 2.0

  0  0  0  0  0  0              0 V3000
M  V30 BEGIN CTAB
M  V30 COUNTS 21 21 0 0 0
M  V30 BEGIN ATOM
M  V30 1 Cl 0.0 0.0 0.0 0
M  V30 2 Cl 3.5868 0.0943 0.0 0
M  V30 3 N 0.5663 -5.569 0.0 0
M  V30 4 C -0.3303 -4.3419 0.0 0
M  V30 5 C 1.9821 -5.097 0.0 0
M  V30 6 N 0.5427 -3.1148 0.0 0
M  V30 7 C -1.8406 -4.3301 0.0 0
M  V30 8 C 1.9703 -3.5868 0.0 0
M  V30 9 C 3.2682 -5.8285 0.0 0
M  V30 10 C -2.5957 -5.6162 0.0 0
M  V30 11 C -2.5957 -3.0204 0.0 0
M  V30 12 C 3.2564 -2.8317 0.0 0
M  V30 13 C 4.5543 -5.0734 0.0 0
M  V30 14 C -4.1059 -5.6044 0.0 0
M  V30 15 C -4.1059 -3.0086 0.0 0
M  V30 16 C 4.5425 -3.575 0.0 0
M  V30 17 C 5.8403 -5.8049 0.0 0
M  V30 18 C -4.8728 -4.2947 0.0 0
M  V30 19 C 5.8285 -2.8199 0.0 0
M  V30 20 C -6.3831 -4.2829 0.0 0
M  V30 21 N -7.1382 -5.569 0.0 0
M  V30 END ATOM
M  V30 BEGIN BOND
M  V30 1 2 3 4
M  V30 2 1 3 5
M  V30 3 1 4 6
M  V30 4 1 4 7
M  V30 5 2 5 8
M  V30 6 1 5 9
M  V30 7 2 7 10
M  V30 8 1 7 11
M  V30 9 1 8 12
M  V30 10 2 9 13
M  V30 11 1 10 14
M  V30 12 2 11 15
M  V30 13 2 12 16
M  V30 14 1 13 17
M  V30 15 2 14 18
M  V30 16 1 16 19
M  V30 17 1 18 20
M  V30 18 1 20 21
M  V30 19 1 6 8
M  V30 20 1 13 16
M  V30 21 1 15 18
M  V30 END BOND
M  V30 END CTAB
M  END
>  <Structure No>
325

>  <Catalog ID>
Z1357774200

>  <MW (desalted)>
251.326

>  <ClogP>
3.563

>  <HBD>
2

>  <TPSA>
54.700

>  <RotBonds>
2

>  <Target>
Serine/threonine-protein kinase Chk2

>  <fromRegid>
CHEMBL176115

>  <Similarity>
0.85

$$$$
Compound 326
Actelion Java MolfileCreator 2.0

  0  0  0  0  0  0              0 V3000
M  V30 BEGIN CTAB
M  V30 COUNTS 19 21 0 0 0
M  V30 BEGIN ATOM
M  V30 1 O 0.0 0.0 0.0 0
M  V30 2 C -0.0117 1.506 0.0 0
M  V30 3 N -1.3178 2.2708 0.0 0
M  V30 4 C 1.2707 2.2708 0.0 0
M  V30 5 C -1.3295 3.7769 0.0 0
M  V30 6 C 1.2589 3.7769 0.0 0
M  V30 7 C 2.5532 1.5296 0.0 0
M  V30 8 N -2.6356 4.5417 0.0 0
M  V30 9 C -0.047 4.5417 0.0 0
M  V30 10 C 2.5415 4.5417 0.0 0
M  V30 11 C 3.8358 2.2944 0.0 0
M  V30 12 C -3.9417 3.8005 0.0 0
M  V30 13 C 3.824 3.8005 0.0 0
M  V30 14 C -5.2477 4.5653 0.0 0
M  V30 15 C -3.9534 2.3179 0.0 0
M  V30 16 C -6.5538 3.824 0.0 0
M  V30 17 C -5.2595 1.5766 0.0 0
M  V30 18 C -6.5655 2.3414 0.0 0
M  V30 19 N -7.8716 1.6002 0.0 0
M  V30 END ATOM
M  V30 BEGIN BOND
M  V30 1 2 1 2
M  V30 2 1 2 3
M  V30 3 1 2 4
M  V30 4 1 3 5
M  V30 5 2 4 6
M  V30 6 1 4 7
M  V30 7 1 5 8
M  V30 8 2 5 9
M  V30 9 1 6 10
M  V30 10 2 7 11
M  V30 11 1 8 12
M  V30 12 2 10 13
M  V30 13 1 12 14
M  V30 14 1 12 15
M  V30 15 1 14 16
M  V30 16 1 15 17
M  V30 17 1 16 18
M  V30 18 1 18 19
M  V30 19 1 6 9
M  V30 20 1 11 13
M  V30 21 1 17 18
M  V30 END BOND
M  V30 END CTAB
M  END
>  <Structure No>
326

>  <Catalog ID>
Z975847804

>  <MW (desalted)>
257.331

>  <ClogP>
0.895

>  <HBD>
3

>  <TPSA>
67.150

>  <RotBonds>
2

>  <Target>
parp10

>  <fromRegid>


>  <Similarity>


$$$$
Compound 327
Actelion Java MolfileCreator 2.0

  0  0  0  0  0  0              0 V3000
M  V30 BEGIN CTAB
M  V30 COUNTS 19 21 0 0 0
M  V30 BEGIN ATOM
M  V30 1 N 0.0 0.0 0.0 0
M  V30 2 C -1.3057 0.7528 0.0 0
M  V30 3 C -0.0117 -1.4821 0.0 0
M  V30 4 N -1.3174 2.2585 0.0 0
M  V30 5 C -2.6114 0.0235 0.0 0
M  V30 6 N -1.3174 -2.2114 0.0 0
M  V30 7 C -0.0352 3.0113 0.0 0
M  V30 8 C -2.6231 3.0113 0.0 0
M  V30 9 N -4.0465 0.494 0.0 0
M  V30 10 C -2.6231 -1.4586 0.0 0
M  V30 11 C -0.047 4.517 0.0 0
M  V30 12 C -2.6349 4.517 0.0 0
M  V30 13 C -4.9405 -0.7057 0.0 0
M  V30 14 N -4.0582 -1.9056 0.0 0
M  V30 15 C -1.3527 5.2698 0.0 0
M  V30 16 C -1.3645 6.7755 0.0 0
M  V30 17 C -2.6702 7.5283 0.0 0
M  V30 18 N -2.6819 9.034 0.0 0
M  V30 19 C -3.9876 9.7869 0.0 0
M  V30 END ATOM
M  V30 BEGIN BOND
M  V30 1 2 1 2
M  V30 2 1 1 3
M  V30 3 1 2 4
M  V30 4 1 2 5
M  V30 5 2 3 6
M  V30 6 1 4 7
M  V30 7 1 4 8
M  V30 8 1 5 9
M  V30 9 2 5 10
M  V30 10 1 7 11
M  V30 11 1 8 12
M  V30 12 1 9 13
M  V30 13 1 10 14
M  V30 14 1 11 15
M  V30 15 1 15 16
M  V30 16 1 16 17
M  V30 17 1 17 18
M  V30 18 1 18 19
M  V30 19 1 6 10
M  V30 20 1 12 15
M  V30 21 2 13 14
M  V30 END BOND
M  V30 END CTAB
M  END
>  <Structure No>
327

>  <Catalog ID>
Z1187869802

>  <MW (desalted)>
260.338

>  <ClogP>
0.718

>  <HBD>
2

>  <TPSA>
69.730

>  <RotBonds>
4

>  <Target>
Serine/threonine-protein kinase Chk2

>  <fromRegid>
CHEMBL2420911

>  <Similarity>
0.94

$$$$
Compound 328
Actelion Java MolfileCreator 2.0

  0  0  0  0  0  0              0 V3000
M  V30 BEGIN CTAB
M  V30 COUNTS 19 21 0 0 0
M  V30 BEGIN ATOM
M  V30 1 S 0.0 0.0 0.0 0
M  V30 2 C -1.5055 0.0117 0.0 0
M  V30 3 C 0.4469 1.435 0.0 0
M  V30 4 N -1.976 1.4467 0.0 0
M  V30 5 C -2.3995 -1.188 0.0 0
M  V30 6 C -0.7763 2.3289 0.0 0
M  V30 7 S -3.9051 -1.1762 0.0 0
M  V30 8 C -1.9525 -2.5994 0.0 0
M  V30 9 C -0.788 3.8345 0.0 0
M  V30 10 C -4.3756 -2.5877 0.0 0
M  V30 11 C -3.1758 -3.4699 0.0 0
M  V30 12 O -2.0937 4.5991 0.0 0
M  V30 13 N 0.494 4.5991 0.0 0
M  V30 14 C 0.4822 6.1046 0.0 0
M  V30 15 C -0.8233 6.8574 0.0 0
M  V30 16 C 1.7643 6.8574 0.0 0
M  V30 17 C -0.8351 8.363 0.0 0
M  V30 18 C 1.7526 8.363 0.0 0
M  V30 19 C 0.4469 9.1158 0.0 0
M  V30 END ATOM
M  V30 BEGIN BOND
M  V30 1 1 1 2
M  V30 2 1 1 3
M  V30 3 2 2 4
M  V30 4 1 2 5
M  V30 5 2 3 6
M  V30 6 1 5 7
M  V30 7 2 5 8
M  V30 8 1 6 9
M  V30 9 1 7 10
M  V30 10 1 8 11
M  V30 11 2 9 12
M  V30 12 1 9 13
M  V30 13 1 13 14
M  V30 14 2 14 15
M  V30 15 1 14 16
M  V30 16 1 15 17
M  V30 17 2 16 18
M  V30 18 2 17 19
M  V30 19 1 4 6
M  V30 20 2 10 11
M  V30 21 1 18 19
M  V30 END BOND
M  V30 END CTAB
M  END
>  <Structure No>
328

>  <Catalog ID>
Z95493634

>  <MW (desalted)>
286.372

>  <ClogP>
4.092

>  <HBD>
1

>  <TPSA>
41.990

>  <RotBonds>
3

>  <Target>
Serine/threonine-protein kinase Chk1

>  <fromRegid>
CHEMBL2037102

>  <Similarity>
0.87

$$$$
Compound 329
Actelion Java MolfileCreator 2.0

  0  0  0  0  0  0              0 V3000
M  V30 BEGIN CTAB
M  V30 COUNTS 19 21 0 0 0
M  V30 BEGIN ATOM
M  V30 1 O 0.0 0.0 0.0 0
M  V30 2 C -0.0117 1.5062 0.0 0
M  V30 3 N -1.3179 2.2711 0.0 0
M  V30 4 C 1.2709 2.2711 0.0 0
M  V30 5 C -1.3297 3.7774 0.0 0
M  V30 6 C 1.2591 3.7774 0.0 0
M  V30 7 C 2.5536 1.5298 0.0 0
M  V30 8 C -2.6359 4.5306 0.0 0
M  V30 9 C -0.047 4.5306 0.0 0
M  V30 10 C 2.5418 4.5306 0.0 0
M  V30 11 C 3.8363 2.2947 0.0 0
M  V30 12 O -2.6477 6.0369 0.0 0
M  V30 13 N -3.9422 3.801 0.0 0
M  V30 14 C 3.8245 3.801 0.0 0
M  V30 15 C -5.2484 4.5541 0.0 0
M  V30 16 C -6.6252 3.9539 0.0 0
M  V30 17 C -5.4132 6.0486 0.0 0
M  V30 18 C -7.6373 5.0719 0.0 0
M  V30 19 C -6.8841 6.3664 0.0 0
M  V30 END ATOM
M  V30 BEGIN BOND
M  V30 1 2 1 2
M  V30 2 1 2 3
M  V30 3 1 2 4
M  V30 4 1 3 5
M  V30 5 2 4 6
M  V30 6 1 4 7
M  V30 7 1 5 8
M  V30 8 2 5 9
M  V30 9 1 6 10
M  V30 10 2 7 11
M  V30 11 2 8 12
M  V30 12 1 8 13
M  V30 13 2 10 14
M  V30 14 1 13 15
M  V30 15 1 15 16
M  V30 16 1 15 17
M  V30 17 1 16 18
M  V30 18 1 17 19
M  V30 19 1 6 9
M  V30 20 1 11 14
M  V30 21 1 18 19
M  V30 END BOND
M  V30 END CTAB
M  END
>  <Structure No>
329

>  <Catalog ID>
Z79570990

>  <MW (desalted)>
256.300

>  <ClogP>
1.587

>  <HBD>
2

>  <TPSA>
58.200

>  <RotBonds>
2

>  <Target>
Tankyrase1

>  <fromRegid>


>  <Similarity>


$$$$
Compound 330
Actelion Java MolfileCreator 2.0

  0  0  0  0  0  0              0 V3000
M  V30 BEGIN CTAB
M  V30 COUNTS 20 21 0 0 0
M  V30 BEGIN ATOM
M  V30 1 Cl 0.0 0.0 0.0 0
M  V30 2 O 6.3448 3.2197 0.0 0
M  V30 3 C 7.5522 2.3437 0.0 0
M  V30 4 N 7.5403 0.8522 0.0 0
M  V30 5 N 8.9726 2.8172 0.0 0
M  V30 6 C 6.3092 -0.0236 0.0 0
M  V30 7 C 8.9608 0.4024 0.0 0
M  V30 8 C 9.8486 1.6098 0.0 0
M  V30 9 C 6.4513 -1.5033 0.0 0
M  V30 10 C 4.9243 0.6037 0.0 0
M  V30 11 O 9.4106 -1.018 0.0 0
M  V30 12 C 10.7246 2.8409 0.0 0
M  V30 13 C 10.7246 0.4024 0.0 0
M  V30 14 C 5.2202 -2.3793 0.0 0
M  V30 15 C 3.6932 -0.2722 0.0 0
M  V30 16 C 12.1451 2.3911 0.0 0
M  V30 17 C 12.1451 0.8759 0.0 0
M  V30 18 C 3.8352 -1.7519 0.0 0
M  V30 19 C 5.3623 -3.8589 0.0 0
M  V30 20 N 4.1312 -4.7349 0.0 0
M  V30 END ATOM
M  V30 BEGIN BOND
M  V30 1 2 2 3
M  V30 2 1 3 4
M  V30 3 1 3 5
M  V30 4 1 4 6
M  V30 5 1 4 7
M  V30 6 1 5 8
M  V30 7 2 6 9
M  V30 8 1 6 10
M  V30 9 2 7 11
M  V30 10 1 8 12
M  V30 11 1 8 13
M  V30 12 1 9 14
M  V30 13 2 10 15
M  V30 14 1 12 16
M  V30 15 1 13 17
M  V30 16 2 14 18
M  V30 17 1 14 19
M  V30 18 1 19 20
M  V30 19 1 7 8
M  V30 20 1 15 18
M  V30 21 1 16 17
M  V30 END BOND
M  V30 END CTAB
M  END
>  <Structure No>
330

>  <Catalog ID>
Z2168499557

>  <MW (desalted)>
259.304

>  <ClogP>
0.428

>  <HBD>
2

>  <TPSA>
75.430

>  <RotBonds>
2

>  <Target>
CHK1

>  <fromRegid>


>  <Similarity>


$$$$
Compound 331
Actelion Java MolfileCreator 2.0

  0  0  0  0  0  0              0 V3000
M  V30 BEGIN CTAB
M  V30 COUNTS 20 21 0 0 0
M  V30 BEGIN ATOM
M  V30 1 Cl 0.0 0.0 0.0 0
M  V30 2 S 5.3863 -0.4724 0.0 0
M  V30 3 O 6.8746 -0.4606 0.0 0
M  V30 4 O 3.8743 -0.4606 0.0 0
M  V30 5 N 5.3745 -1.9608 0.0 0
M  V30 6 C 5.3745 1.0394 0.0 0
M  V30 7 C 6.5793 -2.8349 0.0 0
M  V30 8 C 4.146 -2.8349 0.0 0
M  V30 9 C 6.662 1.7954 0.0 0
M  V30 10 C 4.0633 1.7954 0.0 0
M  V30 11 C 6.1068 -4.2523 0.0 0 CFG=2
M  V30 12 C 4.5949 -4.2523 0.0 0
M  V30 13 C 6.6502 3.3074 0.0 0
M  V30 14 C 7.9495 1.063 0.0 0
M  V30 15 C 4.0515 3.3074 0.0 0
M  V30 16 N 6.9809 -5.4572 0.0 0
M  V30 17 C 7.9377 4.0752 0.0 0
M  V30 18 C 5.3391 4.0752 0.0 0
M  V30 19 C 9.2371 1.819 0.0 0
M  V30 20 N 9.2253 3.331 0.0 0
M  V30 END ATOM
M  V30 BEGIN BOND
M  V30 1 2 2 3
M  V30 2 2 2 4
M  V30 3 1 2 5
M  V30 4 1 2 6
M  V30 5 1 5 7
M  V30 6 1 5 8
M  V30 7 1 6 9
M  V30 8 2 6 10
M  V30 9 1 7 11
M  V30 10 1 8 12
M  V30 11 1 9 13
M  V30 12 2 9 14
M  V30 13 1 10 15
M  V30 14 1 11 16 CFG=1
M  V30 15 2 13 17
M  V30 16 1 13 18
M  V30 17 1 14 19
M  V30 18 1 17 20
M  V30 19 1 11 12
M  V30 20 2 15 18
M  V30 21 2 19 20
M  V30 END BOND
M  V30 BEGIN COLLECTION
M  V30 MDLV30/STEABS ATOMS=(1 11)
M  V30 END COLLECTION
M  V30 END CTAB
M  END
>  <Structure No>
331

>  <Catalog ID>
Z1491353418

>  <MW (desalted)>
277.342

>  <ClogP>
0.608

>  <HBD>
1

>  <TPSA>
76.290

>  <RotBonds>
1

>  <Target>
CHK2

>  <fromRegid>


>  <Similarity>


$$$$
Compound 332
Actelion Java MolfileCreator 2.0

  0  0  0  0  0  0              0 V3000
M  V30 BEGIN CTAB
M  V30 COUNTS 19 21 0 0 0
M  V30 BEGIN ATOM
M  V30 1 S 0.0 0.0 0.0 0
M  V30 2 C -1.2409 -0.8509 0.0 0
M  V30 3 C 1.1819 -0.8982 0.0 0
M  V30 4 N -2.7183 -0.4963 0.0 0
M  V30 5 C -0.8155 -2.281 0.0 0
M  V30 6 C 0.6736 -2.3047 0.0 0
M  V30 7 C 2.6711 -0.9218 0.0 0
M  V30 8 C -3.7584 -1.5837 0.0 0
M  V30 9 C -1.8555 -3.3684 0.0 0
M  V30 10 C 1.8555 -3.2029 0.0 0
M  V30 11 C 3.0965 -2.3519 0.0 0
M  V30 12 N -3.3329 -3.0138 0.0 0
M  V30 13 C -5.2358 -1.2291 0.0 0
M  V30 14 O -1.4301 -4.7985 0.0 0
M  V30 15 N -6.2759 -2.3165 0.0 0
M  V30 16 C -7.7532 -1.9619 0.0 0
M  V30 17 C -5.8504 -3.7466 0.0 0
M  V30 18 C -8.7933 -3.0493 0.0 0
M  V30 19 C -4.3966 -4.0775 0.0 0
M  V30 END ATOM
M  V30 BEGIN BOND
M  V30 1 1 1 2
M  V30 2 1 1 3
M  V30 3 1 2 4
M  V30 4 2 2 5
M  V30 5 2 3 6
M  V30 6 1 3 7
M  V30 7 2 4 8
M  V30 8 1 5 9
M  V30 9 1 6 10
M  V30 10 1 7 11
M  V30 11 1 8 12
M  V30 12 1 8 13
M  V30 13 2 9 14
M  V30 14 1 13 15
M  V30 15 1 15 16
M  V30 16 1 15 17
M  V30 17 1 16 18
M  V30 18 1 17 19
M  V30 19 1 5 6
M  V30 20 1 9 12
M  V30 21 1 10 11
M  V30 END BOND
M  V30 END CTAB
M  END
>  <Structure No>
332

>  <Catalog ID>
Z55321873

>  <MW (desalted)>
277.385

>  <ClogP>
2.029

>  <HBD>
1

>  <TPSA>
44.700

>  <RotBonds>
4

>  <Target>
Poly [ADP-ribose] polymerase-1

>  <fromRegid>
CHEMBL3616846

>  <Similarity>
0.96

$$$$
Compound 333
Actelion Java MolfileCreator 2.0

  0  0  0  0  0  0              0 V3000
M  V30 BEGIN CTAB
M  V30 COUNTS 19 20 0 0 0
M  V30 BEGIN ATOM
M  V30 1 O 0.0 0.0 0.0 0
M  V30 2 C 1.474 0.165 0.0 0
M  V30 3 N 2.0754 1.5447 0.0 0
M  V30 4 C 2.3466 -1.0377 0.0 0
M  V30 5 C 1.1792 2.7711 0.0 0
M  V30 6 C 1.7216 -2.3938 0.0 0
M  V30 7 N -0.3301 2.7829 0.0 0
M  V30 8 C 1.6273 4.2098 0.0 0
M  V30 9 C 2.5943 -3.5966 0.0 0
M  V30 10 C 0.224 -2.5353 0.0 0
M  V30 11 N -0.8018 4.2216 0.0 0
M  V30 12 C 0.4009 5.106 0.0 0
M  V30 13 C 1.9693 -4.9527 0.0 0
M  V30 14 C -0.4009 -3.8914 0.0 0
M  V30 15 C 0.3891 6.6154 0.0 0
M  V30 16 C 0.4716 -5.0942 0.0 0
M  V30 17 C -0.9198 7.3702 0.0 0
M  V30 18 C 1.6745 7.3702 0.0 0
M  V30 19 C -0.1533 -6.4504 0.0 0
M  V30 END ATOM
M  V30 BEGIN BOND
M  V30 1 2 1 2
M  V30 2 1 2 3
M  V30 3 1 2 4
M  V30 4 1 3 5
M  V30 5 1 4 6
M  V30 6 1 5 7
M  V30 7 2 5 8
M  V30 8 2 6 9
M  V30 9 1 6 10
M  V30 10 1 7 11
M  V30 11 1 8 12
M  V30 12 1 9 13
M  V30 13 2 10 14
M  V30 14 1 12 15
M  V30 15 2 13 16
M  V30 16 1 15 17
M  V30 17 1 15 18
M  V30 18 1 16 19
M  V30 19 2 11 12
M  V30 20 1 14 16
M  V30 END BOND
M  V30 END CTAB
M  END
>  <Structure No>
333

>  <Catalog ID>
Z829332122

>  <MW (desalted)>
257.331

>  <ClogP>
3.276

>  <HBD>
2

>  <TPSA>
57.780

>  <RotBonds>
4

>  <Target>
Serine/threonine-protein kinase Chk1

>  <fromRegid>
CHEMBL115220

>  <Similarity>
0.88

$$$$
Compound 334
Actelion Java MolfileCreator 2.0

  0  0  0  0  0  0              0 V3000
M  V30 BEGIN CTAB
M  V30 COUNTS 19 21 0 0 0
M  V30 BEGIN ATOM
M  V30 1 O 0.0 0.0 0.0 0
M  V30 2 C -0.0118 -1.4914 0.0 0
M  V30 3 N 1.2783 -2.2253 0.0 0
M  V30 4 C -1.3257 -2.2253 0.0 0
M  V30 5 C 2.5686 -1.4677 0.0 0 CFG=2
M  V30 6 C -2.6396 -1.4677 0.0 0
M  V30 7 C -1.3375 -3.7167 0.0 0
M  V30 8 C 3.8588 -2.2016 0.0 0
M  V30 9 C 2.5567 0.0473 0.0 0
M  V30 10 C -3.9535 -2.2016 0.0 0
M  V30 11 C -2.6514 -4.4506 0.0 0
M  V30 12 N 5.22 -1.5743 0.0 0
M  V30 13 N 4.0008 -3.6812 0.0 0
M  V30 14 C -3.9653 -3.6931 0.0 0
M  V30 15 C -5.3976 -1.7281 0.0 0
M  V30 16 C 6.2143 -2.6751 0.0 0
M  V30 17 C 5.4568 -3.9771 0.0 0
M  V30 18 C -5.4094 -4.1429 0.0 0
M  V30 19 C -6.2972 -2.9355 0.0 0
M  V30 END ATOM
M  V30 BEGIN BOND
M  V30 1 2 1 2
M  V30 2 1 2 3
M  V30 3 1 2 4
M  V30 4 1 5 3 CFG=1
M  V30 5 2 4 6
M  V30 6 1 4 7
M  V30 7 1 5 8
M  V30 8 1 5 9
M  V30 9 1 6 10
M  V30 10 2 7 11
M  V30 11 2 8 12
M  V30 12 1 8 13
M  V30 13 2 10 14
M  V30 14 1 10 15
M  V30 15 1 12 16
M  V30 16 1 13 17
M  V30 17 1 14 18
M  V30 18 1 15 19
M  V30 19 1 11 14
M  V30 20 2 16 17
M  V30 21 1 18 19
M  V30 END BOND
M  V30 BEGIN COLLECTION
M  V30 MDLV30/STERAC1 ATOMS=(1 5)
M  V30 END COLLECTION
M  V30 END CTAB
M  END
>  <Structure No>
334

>  <Catalog ID>
Z1712175619

>  <MW (desalted)>
255.315

>  <ClogP>
1.980

>  <HBD>
2

>  <TPSA>
57.780

>  <RotBonds>
3

>  <Target>
ATM

>  <fromRegid>


>  <Similarity>


$$$$
Compound 335
Actelion Java MolfileCreator 2.0

  0  0  0  0  0  0              0 V3000
M  V30 BEGIN CTAB
M  V30 COUNTS 19 21 0 0 0
M  V30 BEGIN ATOM
M  V30 1 O 0.0 0.0 0.0 0
M  V30 2 C -1.3102 -0.7318 0.0 0
M  V30 3 N -2.6205 0.0236 0.0 0
M  V30 4 C -1.322 -2.2191 0.0 0
M  V30 5 C -3.9307 -0.7082 0.0 0
M  V30 6 C -2.6323 -2.9628 0.0 0
M  V30 7 C -3.9425 -2.1955 0.0 0
M  V30 8 C -5.241 0.0472 0.0 0
M  V30 9 C -5.2528 -2.9392 0.0 0
M  V30 10 C -6.5512 -0.6846 0.0 0
M  V30 11 C -6.563 -2.1837 0.0 0
M  V30 12 C -7.8733 -2.9274 0.0 0
M  V30 13 O -9.1835 -2.1719 0.0 0
M  V30 14 N -7.8851 -4.4147 0.0 0
M  V30 15 C -6.5984 -5.1583 0.0 0
M  V30 16 C -9.1954 -5.1583 0.0 0
M  V30 17 C -6.6103 -6.6457 0.0 0
M  V30 18 C -9.2072 -6.6457 0.0 0
M  V30 19 O -7.9205 -7.3775 0.0 0
M  V30 END ATOM
M  V30 BEGIN BOND
M  V30 1 2 1 2
M  V30 2 1 2 3
M  V30 3 1 2 4
M  V30 4 1 3 5
M  V30 5 1 4 6
M  V30 6 2 5 7
M  V30 7 1 5 8
M  V30 8 1 7 9
M  V30 9 2 8 10
M  V30 10 2 9 11
M  V30 11 1 11 12
M  V30 12 2 12 13
M  V30 13 1 12 14
M  V30 14 1 14 15
M  V30 15 1 14 16
M  V30 16 1 15 17
M  V30 17 1 16 18
M  V30 18 1 17 19
M  V30 19 1 6 7
M  V30 20 1 10 11
M  V30 21 1 18 19
M  V30 END BOND
M  V30 END CTAB
M  END
>  <Structure No>
335

>  <Catalog ID>
Z168210258

>  <MW (desalted)>
260.288

>  <ClogP>
0.395

>  <HBD>
1

>  <TPSA>
58.640

>  <RotBonds>
1

>  <Target>
parp2

>  <fromRegid>


>  <Similarity>


$$$$
Compound 336
Actelion Java MolfileCreator 2.0

  0  0  0  0  0  0              0 V3000
M  V30 BEGIN CTAB
M  V30 COUNTS 19 21 0 0 0
M  V30 BEGIN ATOM
M  V30 1 O 0.0 0.0 0.0 0
M  V30 2 C -0.0118 -1.4916 0.0 0
M  V30 3 C -1.3259 -2.2256 0.0 0
M  V30 4 C 1.2785 -2.2256 0.0 0
M  V30 5 C -1.3377 -3.7173 0.0 0
M  V30 6 C -2.64 -1.4679 0.0 0
M  V30 7 C 1.2667 -3.7173 0.0 0
M  V30 8 O -0.0473 -4.4631 0.0 0
M  V30 9 C -2.6518 -4.4631 0.0 0
M  V30 10 O -2.6518 0.0473 0.0 0
M  V30 11 C -3.9541 -2.2019 0.0 0
M  V30 12 C 2.5571 -4.4631 0.0 0
M  V30 13 C -3.9659 -3.6936 0.0 0
M  V30 14 C 3.8475 -3.6936 0.0 0
M  V30 15 C 2.5453 -5.9548 0.0 0
M  V30 16 O -5.28 -4.4394 0.0 0
M  V30 17 C 5.1379 -4.4394 0.0 0
M  V30 18 C 3.8357 -6.7006 0.0 0
M  V30 19 C 5.1261 -5.9311 0.0 0
M  V30 END ATOM
M  V30 BEGIN BOND
M  V30 1 2 1 2
M  V30 2 1 2 3
M  V30 3 1 2 4
M  V30 4 2 3 5
M  V30 5 1 3 6
M  V30 6 2 4 7
M  V30 7 1 5 8
M  V30 8 1 5 9
M  V30 9 1 6 10
M  V30 10 2 6 11
M  V30 11 1 7 12
M  V30 12 2 9 13
M  V30 13 2 12 14
M  V30 14 1 12 15
M  V30 15 1 13 16
M  V30 16 1 14 17
M  V30 17 2 15 18
M  V30 18 2 17 19
M  V30 19 1 7 8
M  V30 20 1 11 13
M  V30 21 1 18 19
M  V30 END BOND
M  V30 END CTAB
M  END
>  <Structure No>
336

>  <Catalog ID>
Z1824566175

>  <MW (desalted)>
254.238

>  <ClogP>
3.563

>  <HBD>
2

>  <TPSA>
66.760

>  <RotBonds>
1

>  <Target>
Poly [ADP-ribose] polymerase-1

>  <fromRegid>
CHEMBL275638

>  <Similarity>
0.94

$$$$
Compound 337
Actelion Java MolfileCreator 2.0

  0  0  0  0  0  0              0 V3000
M  V30 BEGIN CTAB
M  V30 COUNTS 19 21 0 0 0
M  V30 BEGIN ATOM
M  V30 1 O 0.0 0.0 0.0 0
M  V30 2 C -0.0118 -1.4933 0.0 0
M  V30 3 C 1.28 -2.2282 0.0 0
M  V30 4 C -1.3274 -2.2282 0.0 0
M  V30 5 C 1.2681 -3.7215 0.0 0
M  V30 6 C 2.5719 -1.4696 0.0 0
M  V30 7 C -1.3392 -3.7215 0.0 0
M  V30 8 O -0.0474 -4.4682 0.0 0
M  V30 9 C 2.56 -4.4682 0.0 0
M  V30 10 C 3.8637 -2.2044 0.0 0
M  V30 11 C -2.6548 -4.4682 0.0 0
M  V30 12 C 3.8519 -3.7097 0.0 0
M  V30 13 C -2.6667 -5.9616 0.0 0
M  V30 14 C -3.9704 -3.7097 0.0 0
M  V30 15 O -1.3748 -6.7083 0.0 0
M  V30 16 C -3.9823 -6.7083 0.0 0
M  V30 17 C -5.286 -4.4564 0.0 0
M  V30 18 C -1.3867 -8.2016 0.0 0
M  V30 19 C -5.2979 -5.9379 0.0 0
M  V30 END ATOM
M  V30 BEGIN BOND
M  V30 1 2 1 2
M  V30 2 1 2 3
M  V30 3 1 2 4
M  V30 4 2 3 5
M  V30 5 1 3 6
M  V30 6 2 4 7
M  V30 7 1 5 8
M  V30 8 1 5 9
M  V30 9 2 6 10
M  V30 10 1 7 11
M  V30 11 2 9 12
M  V30 12 2 11 13
M  V30 13 1 11 14
M  V30 14 1 13 15
M  V30 15 1 13 16
M  V30 16 2 14 17
M  V30 17 1 15 18
M  V30 18 2 16 19
M  V30 19 1 7 8
M  V30 20 1 10 12
M  V30 21 1 17 19
M  V30 END BOND
M  V30 END CTAB
M  END
>  <Structure No>
337

>  <Catalog ID>
Z1833628185

>  <MW (desalted)>
252.265

>  <ClogP>
2.889

>  <HBD>
0

>  <TPSA>
35.530

>  <RotBonds>
2

>  <Target>
Poly [ADP-ribose] polymerase-1

>  <fromRegid>
CHEMBL275638

>  <Similarity>
0.92

$$$$
Compound 338
Actelion Java MolfileCreator 2.0

  0  0  0  0  0  0              0 V3000
M  V30 BEGIN CTAB
M  V30 COUNTS 19 19 0 0 0
M  V30 BEGIN ATOM
M  V30 1 F 0.0 0.0 0.0 0
M  V30 2 C -0.0118 -1.4937 0.0 0
M  V30 3 C 1.2803 -2.2405 0.0 0
M  V30 4 C -1.3277 -2.2405 0.0 0
M  V30 5 C 2.5724 -1.4818 0.0 0
M  V30 6 C 1.2684 -3.7342 0.0 0
M  V30 7 C -1.3395 -3.7342 0.0 0
M  V30 8 O 2.5606 0.0355 0.0 0
M  V30 9 N 3.8646 -2.2287 0.0 0
M  V30 10 C -0.0474 -4.4811 0.0 0
M  V30 11 C 5.1568 -1.4699 0.0 0 CFG=2
M  V30 12 C -0.0592 -5.9748 0.0 0
M  V30 13 C 6.449 -2.2168 0.0 0
M  V30 14 C 5.1449 0.0474 0.0 0
M  V30 15 F -0.0711 -7.4685 0.0 0
M  V30 16 F 1.4344 -5.9629 0.0 0
M  V30 17 F -1.5766 -5.9629 0.0 0
M  V30 18 O 7.7411 -1.4581 0.0 0
M  V30 19 N 6.4371 -3.7105 0.0 0
M  V30 END ATOM
M  V30 BEGIN BOND
M  V30 1 1 1 2
M  V30 2 2 2 3
M  V30 3 1 2 4
M  V30 4 1 3 5
M  V30 5 1 3 6
M  V30 6 2 4 7
M  V30 7 2 5 8
M  V30 8 1 5 9
M  V30 9 2 6 10
M  V30 10 1 11 9 CFG=1
M  V30 11 1 10 12
M  V30 12 1 11 13
M  V30 13 1 11 14
M  V30 14 1 12 15
M  V30 15 1 12 16
M  V30 16 1 12 17
M  V30 17 2 13 18
M  V30 18 1 13 19
M  V30 19 1 7 10
M  V30 END BOND
M  V30 BEGIN COLLECTION
M  V30 MDLV30/STEABS ATOMS=(1 11)
M  V30 END COLLECTION
M  V30 END CTAB
M  END
>  <Structure No>
338

>  <Catalog ID>
Z1629039861

>  <MW (desalted)>
278.203

>  <ClogP>
1.088

>  <HBD>
2

>  <TPSA>
72.190

>  <RotBonds>
4

>  <Target>
ATM

>  <fromRegid>


>  <Similarity>


$$$$
Compound 339
Actelion Java MolfileCreator 2.0

  0  0  0  0  0  0              0 V3000
M  V30 BEGIN CTAB
M  V30 COUNTS 21 22 0 0 0
M  V30 BEGIN ATOM
M  V30 1 Cl 0.0 0.0 0.0 0
M  V30 2 S 5.4937 -0.2841 0.0 0
M  V30 3 O 6.9855 -0.2723 0.0 0
M  V30 4 O 3.9782 -0.2723 0.0 0
M  V30 5 N 5.4818 -1.7759 0.0 0
M  V30 6 C 5.4818 1.2313 0.0 0
M  V30 7 C 6.7724 -2.51 0.0 0
M  V30 8 C 4.1676 -2.51 0.0 0
M  V30 9 C 6.7724 1.9891 0.0 0
M  V30 10 C 4.1676 1.9891 0.0 0
M  V30 11 C 6.7606 -4.0019 0.0 0 CFG=1
M  V30 12 C 4.1558 -4.0019 0.0 0
M  V30 13 C 6.7606 3.5046 0.0 0
M  V30 14 C 8.063 1.255 0.0 0
M  V30 15 C 4.1558 3.5046 0.0 0
M  V30 16 N 8.0511 -4.7359 0.0 0
M  V30 17 C 5.4463 -4.7359 0.0 0
M  V30 18 C 8.0511 4.2623 0.0 0
M  V30 19 C 5.4463 4.2623 0.0 0
M  V30 20 C 9.3535 2.0127 0.0 0
M  V30 21 N 9.3417 3.5283 0.0 0
M  V30 END ATOM
M  V30 BEGIN BOND
M  V30 1 2 2 3
M  V30 2 2 2 4
M  V30 3 1 2 5
M  V30 4 1 2 6
M  V30 5 1 5 7
M  V30 6 1 5 8
M  V30 7 1 6 9
M  V30 8 2 6 10
M  V30 9 1 7 11
M  V30 10 1 8 12
M  V30 11 1 9 13
M  V30 12 2 9 14
M  V30 13 1 10 15
M  V30 14 1 11 16 CFG=1
M  V30 15 1 11 17
M  V30 16 2 13 18
M  V30 17 1 13 19
M  V30 18 1 14 20
M  V30 19 1 18 21
M  V30 20 1 12 17
M  V30 21 2 15 19
M  V30 22 2 20 21
M  V30 END BOND
M  V30 BEGIN COLLECTION
M  V30 MDLV30/STERAC1 ATOMS=(1 11)
M  V30 END COLLECTION
M  V30 END CTAB
M  END
>  <Structure No>
339

>  <Catalog ID>
Z1491212039

>  <MW (desalted)>
291.369

>  <ClogP>
1.167

>  <HBD>
1

>  <TPSA>
76.290

>  <RotBonds>
1

>  <Target>
CHK2

>  <fromRegid>


>  <Similarity>


$$$$
Compound 340
Actelion Java MolfileCreator 2.0

  0  0  0  0  0  0              0 V3000
M  V30 BEGIN CTAB
M  V30 COUNTS 21 22 0 0 0
M  V30 BEGIN ATOM
M  V30 1 Cl 0.0 0.0 0.0 0
M  V30 2 S 5.387 -0.0945 0.0 0
M  V30 3 O 6.8755 -0.0826 0.0 0
M  V30 4 O 3.8748 -0.0826 0.0 0
M  V30 5 N 5.3752 -1.583 0.0 0
M  V30 6 C 5.3752 1.4176 0.0 0
M  V30 7 C 6.5802 -2.4572 0.0 0
M  V30 8 C 4.1466 -2.4572 0.0 0
M  V30 9 C 6.6629 2.1855 0.0 0
M  V30 10 C 4.0639 2.1855 0.0 0
M  V30 11 C 6.1076 -3.8748 0.0 0 CFG=2
M  V30 12 C 4.5955 -3.8748 0.0 0
M  V30 13 C 6.6511 3.6976 0.0 0
M  V30 14 C 7.9506 1.4412 0.0 0
M  V30 15 C 4.0521 3.6976 0.0 0
M  V30 16 C 6.9819 -5.0798 0.0 0
M  V30 17 C 7.9388 4.4537 0.0 0
M  V30 18 C 5.3397 4.4537 0.0 0
M  V30 19 C 9.2383 2.2091 0.0 0
M  V30 20 N 6.3557 -6.4384 0.0 0
M  V30 21 N 9.2265 3.7213 0.0 0
M  V30 END ATOM
M  V30 BEGIN BOND
M  V30 1 2 2 3
M  V30 2 2 2 4
M  V30 3 1 2 5
M  V30 4 1 2 6
M  V30 5 1 5 7
M  V30 6 1 5 8
M  V30 7 1 6 9
M  V30 8 2 6 10
M  V30 9 1 7 11
M  V30 10 1 8 12
M  V30 11 1 9 13
M  V30 12 2 9 14
M  V30 13 1 10 15
M  V30 14 1 11 16 CFG=1
M  V30 15 2 13 17
M  V30 16 1 13 18
M  V30 17 1 14 19
M  V30 18 1 16 20
M  V30 19 1 17 21
M  V30 20 1 11 12
M  V30 21 2 15 18
M  V30 22 2 19 21
M  V30 END BOND
M  V30 BEGIN COLLECTION
M  V30 MDLV30/STERAC1 ATOMS=(1 11)
M  V30 END COLLECTION
M  V30 END CTAB
M  END
>  <Structure No>
340

>  <Catalog ID>
Z1491272050

>  <MW (desalted)>
291.369

>  <ClogP>
0.393

>  <HBD>
1

>  <TPSA>
76.290

>  <RotBonds>
2

>  <Target>
Serine/threonine-protein kinase Chk1

>  <fromRegid>
CHEMBL2420922

>  <Similarity>
0.9

$$$$
Compound 341
Actelion Java MolfileCreator 2.0

  0  0  0  0  0  0              0 V3000
M  V30 BEGIN CTAB
M  V30 COUNTS 20 21 0 0 0
M  V30 BEGIN ATOM
M  V30 1 O 0.0 0.0 0.0 0
M  V30 2 C -0.0118 -1.4897 0.0 0
M  V30 3 O -1.3242 -2.2228 0.0 0
M  V30 4 C 1.2769 -2.2228 0.0 0
M  V30 5 C 2.5657 -1.4661 0.0 0
M  V30 6 C 1.2651 -3.7126 0.0 0
M  V30 7 N 2.5538 0.0472 0.0 0
M  V30 8 C 3.8544 -2.1991 0.0 0
M  V30 9 C 2.5538 -4.4456 0.0 0
M  V30 10 C 3.8426 0.8158 0.0 0
M  V30 11 C 3.8426 -3.6889 0.0 0
M  V30 12 O 5.1314 0.0709 0.0 0
M  V30 13 C 3.8308 2.3292 0.0 0
M  V30 14 C 5.1196 3.0859 0.0 0
M  V30 15 C 2.5184 3.0859 0.0 0
M  V30 16 C 5.1077 4.5993 0.0 0
M  V30 17 C 2.5066 4.5993 0.0 0
M  V30 18 C 3.7953 5.356 0.0 0
M  V30 19 O 3.7835 6.8695 0.0 0
M  V30 20 C 2.4711 7.6262 0.0 0
M  V30 END ATOM
M  V30 BEGIN BOND
M  V30 1 2 1 2
M  V30 2 1 2 3
M  V30 3 1 2 4
M  V30 4 2 4 5
M  V30 5 1 4 6
M  V30 6 1 5 7
M  V30 7 1 5 8
M  V30 8 2 6 9
M  V30 9 1 7 10
M  V30 10 2 8 11
M  V30 11 2 10 12
M  V30 12 1 10 13
M  V30 13 2 13 14
M  V30 14 1 13 15
M  V30 15 1 14 16
M  V30 16 2 15 17
M  V30 17 2 16 18
M  V30 18 1 18 19
M  V30 19 1 19 20
M  V30 20 1 9 11
M  V30 21 1 17 18
M  V30 END BOND
M  V30 END CTAB
M  END
>  <Structure No>
341

>  <Catalog ID>
Z55928796

>  <MW (desalted)>
271.268

>  <ClogP>
3.439

>  <HBD>
2

>  <TPSA>
75.630

>  <RotBonds>
4

>  <Target>
Serine/threonine-protein kinase Chk1

>  <fromRegid>
CHEMBL1997495

>  <Similarity>
0.91

$$$$
Compound 342
Actelion Java MolfileCreator 2.0

  0  0  0  0  0  0              0 V3000
M  V30 BEGIN CTAB
M  V30 COUNTS 20 22 0 0 0
M  V30 BEGIN ATOM
M  V30 1 S 0.0 0.0 0.0 0
M  V30 2 O 0.9546 -1.1314 0.0 0
M  V30 3 O -0.9782 -1.1314 0.0 0
M  V30 4 C -1.3082 0.766 0.0 0
M  V30 5 C 1.2846 0.766 0.0 0
M  V30 6 C -1.32 2.2746 0.0 0
M  V30 7 C -2.6164 0.0235 0.0 0
M  V30 8 C 1.2728 2.2746 0.0 0
M  V30 9 C 2.5692 0.0235 0.0 0
M  V30 10 C -0.0353 3.0289 0.0 0
M  V30 11 C -2.6282 3.0289 0.0 0
M  V30 12 C -3.9246 0.7896 0.0 0
M  V30 13 C 2.5575 3.0289 0.0 0
M  V30 14 C 3.8539 0.7896 0.0 0
M  V30 15 O -0.0471 4.5375 0.0 0
M  V30 16 C -3.9364 2.2864 0.0 0
M  V30 17 C -5.2328 0.0471 0.0 0
M  V30 18 C 3.8421 2.2864 0.0 0
M  V30 19 O -6.541 0.8132 0.0 0
M  V30 20 O -5.2446 -1.4378 0.0 0
M  V30 END ATOM
M  V30 BEGIN BOND
M  V30 1 2 1 2
M  V30 2 2 1 3
M  V30 3 1 1 4
M  V30 4 1 1 5
M  V30 5 2 4 6
M  V30 6 1 4 7
M  V30 7 2 5 8
M  V30 8 1 5 9
M  V30 9 1 6 10
M  V30 10 1 6 11
M  V30 11 2 7 12
M  V30 12 1 8 13
M  V30 13 2 9 14
M  V30 14 2 10 15
M  V30 15 2 11 16
M  V30 16 1 12 17
M  V30 17 2 13 18
M  V30 18 2 17 19
M  V30 19 1 17 20
M  V30 20 1 8 10
M  V30 21 1 12 16
M  V30 22 1 14 18
M  V30 END BOND
M  V30 END CTAB
M  END
>  <Structure No>
342

>  <Catalog ID>
Z56769216

>  <MW (desalted)>
288.275

>  <ClogP>
2.327

>  <HBD>
1

>  <TPSA>
88.510

>  <RotBonds>
1

>  <Target>
Serine/threonine-protein kinase Chk1

>  <fromRegid>
CHEMBL554147

>  <Similarity>
0.92

$$$$
Compound 343
Actelion Java MolfileCreator 2.0

  0  0  0  0  0  0              0 V3000
M  V30 BEGIN CTAB
M  V30 COUNTS 20 23 0 0 0
M  V30 BEGIN ATOM
M  V30 1 S 0.0 0.0 0.0 0
M  V30 2 C -1.2372 -0.8484 0.0 0
M  V30 3 C 1.1783 -0.8955 0.0 0
M  V30 4 N -2.7102 -0.4949 0.0 0
M  V30 5 C -0.813 -2.2742 0.0 0
M  V30 6 C 0.6716 -2.2978 0.0 0
M  V30 7 C 2.6631 -0.9191 0.0 0
M  V30 8 C -3.7472 -1.579 0.0 0
M  V30 9 C -1.85 -3.3583 0.0 0
M  V30 10 C 1.85 -3.1934 0.0 0
M  V30 11 C 3.0873 -2.3449 0.0 0
M  V30 12 N -3.323 -3.0048 0.0 0
M  V30 13 C -5.2202 -1.2255 0.0 0
M  V30 14 O -1.4258 -4.7842 0.0 0
M  V30 15 N -5.668 0.2238 0.0 0
M  V30 16 C -7.1409 0.5774 0.0 0
M  V30 17 C -4.6545 1.3315 0.0 0
M  V30 18 C -7.5887 2.0268 0.0 0
M  V30 19 C -5.1023 2.7809 0.0 0
M  V30 20 C -6.5753 3.1344 0.0 0
M  V30 END ATOM
M  V30 BEGIN BOND
M  V30 1 1 1 2
M  V30 2 1 1 3
M  V30 3 1 2 4
M  V30 4 2 2 5
M  V30 5 2 3 6
M  V30 6 1 3 7
M  V30 7 2 4 8
M  V30 8 1 5 9
M  V30 9 1 6 10
M  V30 10 1 7 11
M  V30 11 1 8 12
M  V30 12 1 8 13
M  V30 13 2 9 14
M  V30 14 1 13 15
M  V30 15 1 15 16
M  V30 16 1 15 17
M  V30 17 1 16 18
M  V30 18 1 17 19
M  V30 19 1 18 20
M  V30 20 1 5 6
M  V30 21 1 9 12
M  V30 22 1 10 11
M  V30 23 1 19 20
M  V30 END BOND
M  V30 END CTAB
M  END
>  <Structure No>
343

>  <Catalog ID>
Z44489819

>  <MW (desalted)>
289.396

>  <ClogP>
2.164

>  <HBD>
1

>  <TPSA>
44.700

>  <RotBonds>
2

>  <Target>
Poly [ADP-ribose] polymerase-1

>  <fromRegid>
CHEMBL3616846

>  <Similarity>
0.93

$$$$
Compound 344
Actelion Java MolfileCreator 2.0

  0  0  0  0  0  0              0 V3000
M  V30 BEGIN CTAB
M  V30 COUNTS 21 21 0 0 0
M  V30 BEGIN ATOM
M  V30 1 K 0.0 0.0 0.0 0 CHG=1
M  V30 2 S 10.8133 -3.1029 0.0 0
M  V30 3 C 10.3431 -4.5133 0.0 0
M  V30 4 C 9.5909 -2.2096 0.0 0
M  V30 5 O 11.2129 -5.7122 0.0 0
M  V30 6 N 8.8387 -4.5016 0.0 0 CHG=-1
M  V30 7 C 8.3685 -3.0794 0.0 0
M  V30 8 C 9.5791 -0.7052 0.0 0
M  V30 9 O 6.9346 -2.6092 0.0 0
M  V30 10 C 8.2745 0.047 0.0 0
M  V30 11 C 8.2627 1.5514 0.0 0
M  V30 12 C 6.9698 -0.6817 0.0 0
M  V30 13 C 6.9581 2.3037 0.0 0
M  V30 14 C 5.6652 0.0705 0.0 0
M  V30 15 O 6.9463 3.8081 0.0 0
M  V30 16 C 5.6534 1.5632 0.0 0
M  V30 17 C 8.2275 4.5603 0.0 0
M  V30 18 O 4.3488 2.3154 0.0 0
M  V30 19 C 4.337 3.8199 0.0 0
M  V30 20 F 3.0324 4.5721 0.0 0
M  V30 21 F 5.6182 4.5721 0.0 0
M  V30 END ATOM
M  V30 BEGIN BOND
M  V30 1 1 2 3
M  V30 2 1 2 4
M  V30 3 2 3 5
M  V30 4 1 3 6
M  V30 5 1 4 7
M  V30 6 2 4 8 CFG=2
M  V30 7 2 7 9
M  V30 8 1 8 10
M  V30 9 2 10 11
M  V30 10 1 10 12
M  V30 11 1 11 13
M  V30 12 2 12 14
M  V30 13 1 13 15
M  V30 14 2 13 16
M  V30 15 1 15 17
M  V30 16 1 16 18
M  V30 17 1 18 19
M  V30 18 1 19 20
M  V30 19 1 19 21
M  V30 20 1 6 7
M  V30 21 1 14 16
M  V30 END BOND
M  V30 END CTAB
M  END
>  <Structure No>
344

>  <Catalog ID>
Z3464806452

>  <MW (desalted)>
301.266

>  <ClogP>
1.561

>  <HBD>
0

>  <TPSA>
61.830

>  <RotBonds>
4

>  <Target>
Serine/threonine-protein kinase Chk2

>  <fromRegid>
CHEMBL2003286

>  <Similarity>
0.91

$$$$
Compound 345
Actelion Java MolfileCreator 2.0

  0  0  0  0  0  0              0 V3000
M  V30 BEGIN CTAB
M  V30 COUNTS 20 21 0 0 0
M  V30 BEGIN ATOM
M  V30 1 O 0.0 0.0 0.0 0
M  V30 2 C -1.3087 -0.731 0.0 0
M  V30 3 N -2.6175 0.0235 0.0 0
M  V30 4 N -1.3205 -2.2166 0.0 0
M  V30 5 C -3.9263 -0.7074 0.0 0
M  V30 6 C -2.6293 1.5328 0.0 0
M  V30 7 C -2.6293 -2.9476 0.0 0
M  V30 8 N -5.3648 -0.2358 0.0 0
M  V30 9 C -3.9381 -2.193 0.0 0
M  V30 10 C -1.3441 2.2874 0.0 0
M  V30 11 O -2.6411 -4.4333 0.0 0
M  V30 12 C -6.2609 -1.4384 0.0 0
M  V30 13 N -5.3765 -2.6411 0.0 0
M  V30 14 C -1.3559 3.7966 0.0 0
M  V30 15 C -7.7701 -1.4266 0.0 0
M  V30 16 C -5.8482 -4.056 0.0 0
M  V30 17 C -0.0707 4.563 0.0 0
M  V30 18 O -8.5247 -0.1179 0.0 0
M  V30 19 C -7.322 -4.3507 0.0 0
M  V30 20 C -7.7937 -5.7656 0.0 0
M  V30 END ATOM
M  V30 BEGIN BOND
M  V30 1 2 1 2
M  V30 2 1 2 3
M  V30 3 1 2 4
M  V30 4 1 3 5
M  V30 5 1 3 6
M  V30 6 1 4 7
M  V30 7 1 5 8
M  V30 8 2 5 9
M  V30 9 1 6 10
M  V30 10 2 7 11
M  V30 11 2 8 12
M  V30 12 1 9 13
M  V30 13 1 10 14
M  V30 14 1 12 15
M  V30 15 1 13 16
M  V30 16 1 14 17
M  V30 17 1 15 18
M  V30 18 1 16 19
M  V30 19 1 19 20
M  V30 20 1 7 9
M  V30 21 1 12 13
M  V30 END BOND
M  V30 END CTAB
M  END
>  <Structure No>
345

>  <Catalog ID>
Z56943381

>  <MW (desalted)>
280.323

>  <ClogP>
0.935

>  <HBD>
2

>  <TPSA>
87.460

>  <RotBonds>
6

>  <Target>
CHK1

>  <fromRegid>


>  <Similarity>


$$$$
Compound 346
Actelion Java MolfileCreator 2.0

  0  0  0  0  0  0              0 V3000
M  V30 BEGIN CTAB
M  V30 COUNTS 20 22 0 0 0
M  V30 BEGIN ATOM
M  V30 1 O 0.0 0.0 0.0 0
M  V30 2 C 0.4487 -1.4169 0.0 0
M  V30 3 N -0.4487 -2.6214 0.0 0
M  V30 4 C 1.8657 -1.8657 0.0 0
M  V30 5 C -1.9601 -2.6096 0.0 0
M  V30 6 C 0.425 -3.8258 0.0 0
M  V30 7 C 1.8539 -3.3535 0.0 0
M  V30 8 C 3.1528 -1.0981 0.0 0
M  V30 9 C -2.7159 -1.2989 0.0 0
M  V30 10 C -2.7159 -3.8967 0.0 0
M  V30 11 O -0.0472 -5.2428 0.0 0
M  V30 12 C 3.141 -4.0974 0.0 0
M  V30 13 C 4.4399 -1.8302 0.0 0
M  V30 14 C -4.2273 -1.2871 0.0 0
M  V30 15 C -4.2273 -3.8849 0.0 0
M  V30 16 C 4.4281 -3.3299 0.0 0
M  V30 17 C -4.9949 -2.5742 0.0 0
M  V30 18 C -6.5063 -2.5624 0.0 0
M  V30 19 O -7.2739 -1.2516 0.0 0
M  V30 20 O -7.2739 -3.8495 0.0 0
M  V30 END ATOM
M  V30 BEGIN BOND
M  V30 1 2 1 2
M  V30 2 1 2 3
M  V30 3 1 2 4
M  V30 4 1 3 5
M  V30 5 1 3 6
M  V30 6 2 4 7
M  V30 7 1 4 8
M  V30 8 2 5 9
M  V30 9 1 5 10
M  V30 10 2 6 11
M  V30 11 1 7 12
M  V30 12 2 8 13
M  V30 13 1 9 14
M  V30 14 2 10 15
M  V30 15 2 12 16
M  V30 16 2 14 17
M  V30 17 1 17 18
M  V30 18 2 18 19
M  V30 19 1 18 20
M  V30 20 1 6 7
M  V30 21 1 13 16
M  V30 22 1 15 17
M  V30 END BOND
M  V30 END CTAB
M  END
>  <Structure No>
346

>  <Catalog ID>
Z56855744

>  <MW (desalted)>
267.236

>  <ClogP>
2.456

>  <HBD>
1

>  <TPSA>
74.680

>  <RotBonds>
2

>  <Target>
Serine/threonine-protein kinase Chk1

>  <fromRegid>
CHEMBL1972820

>  <Similarity>
0.86

$$$$
Compound 347
Actelion Java MolfileCreator 2.0

  0  0  0  0  0  0              0 V3000
M  V30 BEGIN CTAB
M  V30 COUNTS 20 22 0 0 0
M  V30 BEGIN ATOM
M  V30 1 O 0.0 0.0 0.0 0
M  V30 2 C -1.3136 0.7692 0.0 0
M  V30 3 N -1.3254 2.284 0.0 0
M  V30 4 N -2.6272 0.0236 0.0 0
M  V30 5 C -0.0355 3.0414 0.0 0
M  V30 6 C -2.639 -1.4674 0.0 0
M  V30 7 C 1.2544 2.2958 0.0 0
M  V30 8 C -0.0473 4.5562 0.0 0
M  V30 9 C -1.3491 -2.2012 0.0 0
M  V30 10 C -3.9527 -2.2012 0.0 0
M  V30 11 C 2.5444 3.0533 0.0 0
M  V30 12 C 1.2426 5.3137 0.0 0
M  V30 13 C -1.3609 -3.6923 0.0 0
M  V30 14 C -3.9645 -3.6923 0.0 0
M  V30 15 C 2.5325 4.5681 0.0 0
M  V30 16 C 3.8343 2.3077 0.0 0
M  V30 17 C -2.6746 -4.4379 0.0 0
M  V30 18 C 3.8225 5.3255 0.0 0
M  V30 19 C 5.1243 3.0651 0.0 0
M  V30 20 C 5.1125 4.5917 0.0 0
M  V30 END ATOM
M  V30 BEGIN BOND
M  V30 1 2 1 2
M  V30 2 1 2 3
M  V30 3 1 2 4
M  V30 4 1 3 5
M  V30 5 1 4 6
M  V30 6 2 5 7
M  V30 7 1 5 8
M  V30 8 2 6 9
M  V30 9 1 6 10
M  V30 10 1 7 11
M  V30 11 2 8 12
M  V30 12 1 9 13
M  V30 13 2 10 14
M  V30 14 1 11 15
M  V30 15 2 11 16
M  V30 16 2 13 17
M  V30 17 2 15 18
M  V30 18 1 16 19
M  V30 19 1 18 20
M  V30 20 1 12 15
M  V30 21 1 14 17
M  V30 22 2 19 20
M  V30 END BOND
M  V30 END CTAB
M  END
>  <Structure No>
347

>  <Catalog ID>
Z44590349

>  <MW (desalted)>
262.306

>  <ClogP>
4.184

>  <HBD>
2

>  <TPSA>
41.130

>  <RotBonds>
2

>  <Target>
Serine/threonine-protein kinase Chk1

>  <fromRegid>
CHEMBL354676

>  <Similarity>
0.87

$$$$
Compound 348
Actelion Java MolfileCreator 2.0

  0  0  0  0  0  0              0 V3000
M  V30 BEGIN CTAB
M  V30 COUNTS 20 21 0 0 0
M  V30 BEGIN ATOM
M  V30 1 O 0.0 0.0 0.0 0
M  V30 2 C -0.0118 -1.4879 0.0 0
M  V30 3 N -1.3226 -2.2319 0.0 0
M  V30 4 C 1.2754 -2.2319 0.0 0
M  V30 5 C -2.6334 -1.4643 0.0 0
M  V30 6 O 2.5626 -1.4643 0.0 0
M  V30 7 C -3.9442 -2.2083 0.0 0
M  V30 8 C -2.6452 0.0472 0.0 0
M  V30 9 C 3.8498 -2.2083 0.0 0
M  V30 10 C -5.2551 -1.4407 0.0 0
M  V30 11 C -3.9561 0.803 0.0 0
M  V30 12 C 5.137 -1.4407 0.0 0
M  V30 13 C 3.838 -3.6963 0.0 0
M  V30 14 C -6.5659 -2.1847 0.0 0
M  V30 15 C -5.2669 0.0708 0.0 0
M  V30 16 C 6.4242 -2.1847 0.0 0
M  V30 17 C 5.1252 -4.4284 0.0 0
M  V30 18 O -6.5777 -3.6726 0.0 0
M  V30 19 C -7.8767 -1.4171 0.0 0
M  V30 20 C 6.4124 -3.6726 0.0 0
M  V30 END ATOM
M  V30 BEGIN BOND
M  V30 1 2 1 2
M  V30 2 1 2 3
M  V30 3 1 2 4
M  V30 4 1 3 5
M  V30 5 1 4 6
M  V30 6 2 5 7
M  V30 7 1 5 8
M  V30 8 1 6 9
M  V30 9 1 7 10
M  V30 10 2 8 11
M  V30 11 2 9 12
M  V30 12 1 9 13
M  V30 13 1 10 14
M  V30 14 2 10 15
M  V30 15 1 12 16
M  V30 16 2 13 17
M  V30 17 2 14 18
M  V30 18 1 14 19
M  V30 19 2 16 20
M  V30 20 1 11 15
M  V30 21 1 17 20
M  V30 END BOND
M  V30 END CTAB
M  END
>  <Structure No>
348

>  <Catalog ID>
Z19735716

>  <MW (desalted)>
269.295

>  <ClogP>
2.586

>  <HBD>
1

>  <TPSA>
55.400

>  <RotBonds>
5

>  <Target>
parp14

>  <fromRegid>


>  <Similarity>


$$$$
Compound 349
Actelion Java MolfileCreator 2.0

  0  0  0  0  0  0              0 V3000
M  V30 BEGIN CTAB
M  V30 COUNTS 20 21 0 0 0
M  V30 BEGIN ATOM
M  V30 1 S 0.0 0.0 0.0 0
M  V30 2 C -0.1653 1.4999 0.0 0
M  V30 3 C 1.4527 -0.2952 0.0 0
M  V30 4 C 1.1929 2.1259 0.0 0
M  V30 5 C -1.4763 2.2558 0.0 0
M  V30 6 C 2.185 1.0157 0.0 0
M  V30 7 C -2.7873 1.5236 0.0 0
M  V30 8 C -4.0984 2.2795 0.0 0
M  V30 9 C -5.4094 1.5472 0.0 0
M  V30 10 O -5.4212 0.059 0.0 0
M  V30 11 N -6.7204 2.3031 0.0 0
M  V30 12 C -8.0314 1.5708 0.0 0
M  V30 13 C -8.0432 0.0826 0.0 0
M  V30 14 C -9.3424 2.3267 0.0 0
M  V30 15 C -9.3542 -0.6496 0.0 0
M  V30 16 C -10.6534 1.5944 0.0 0
M  V30 17 C -9.366 -2.1377 0.0 0
M  V30 18 C -10.6653 0.1062 0.0 0
M  V30 19 O -8.0787 -2.8818 0.0 0
M  V30 20 C -10.6771 -2.8818 0.0 0
M  V30 END ATOM
M  V30 BEGIN BOND
M  V30 1 1 1 2
M  V30 2 1 1 3
M  V30 3 2 2 4
M  V30 4 1 2 5
M  V30 5 2 3 6
M  V30 6 1 5 7
M  V30 7 1 7 8
M  V30 8 1 8 9
M  V30 9 2 9 10
M  V30 10 1 9 11
M  V30 11 1 11 12
M  V30 12 2 12 13
M  V30 13 1 12 14
M  V30 14 1 13 15
M  V30 15 2 14 16
M  V30 16 1 15 17
M  V30 17 2 15 18
M  V30 18 2 17 19
M  V30 19 1 17 20
M  V30 20 1 4 6
M  V30 21 1 16 18
M  V30 END BOND
M  V30 END CTAB
M  END
>  <Structure No>
349

>  <Catalog ID>
Z30815408

>  <MW (desalted)>
287.377

>  <ClogP>
3.191

>  <HBD>
1

>  <TPSA>
46.170

>  <RotBonds>
6

>  <Target>
parp14

>  <fromRegid>


>  <Similarity>


$$$$
Compound 350
Actelion Java MolfileCreator 2.0

  0  0  0  0  0  0              0 V3000
M  V30 BEGIN CTAB
M  V30 COUNTS 20 21 0 0 0
M  V30 BEGIN ATOM
M  V30 1 O 0.0 0.0 0.0 0
M  V30 2 C -0.0117 1.5103 0.0 0
M  V30 3 N 1.2743 2.2772 0.0 0
M  V30 4 C -1.3215 2.2772 0.0 0
M  V30 5 C 2.5604 1.5339 0.0 0
M  V30 6 C -1.3333 3.7875 0.0 0
M  V30 7 C -2.6312 1.5339 0.0 0
M  V30 8 C 3.8465 2.3008 0.0 0
M  V30 9 C 2.5486 0.0471 0.0 0
M  V30 10 C -2.643 4.5427 0.0 0
M  V30 11 C -0.0471 4.5427 0.0 0
M  V30 12 C -3.9409 2.3008 0.0 0
M  V30 13 C 3.8347 3.8111 0.0 0
M  V30 14 C 5.1326 1.5575 0.0 0
M  V30 15 C 3.8347 -0.6843 0.0 0
M  V30 16 C -3.9527 3.7993 0.0 0
M  V30 17 C -5.2506 1.5575 0.0 0
M  V30 18 O 2.525 4.5663 0.0 0
M  V30 19 C 5.1208 4.5663 0.0 0
M  V30 20 C 5.1208 0.0707 0.0 0
M  V30 END ATOM
M  V30 BEGIN BOND
M  V30 1 2 1 2
M  V30 2 1 2 3
M  V30 3 1 2 4
M  V30 4 1 3 5
M  V30 5 2 4 6
M  V30 6 1 4 7
M  V30 7 2 5 8
M  V30 8 1 5 9
M  V30 9 1 6 10
M  V30 10 1 6 11
M  V30 11 2 7 12
M  V30 12 1 8 13
M  V30 13 1 8 14
M  V30 14 2 9 15
M  V30 15 2 10 16
M  V30 16 1 12 17
M  V30 17 2 13 18
M  V30 18 1 13 19
M  V30 19 2 14 20
M  V30 20 1 12 16
M  V30 21 1 15 20
M  V30 END BOND
M  V30 END CTAB
M  END
>  <Structure No>
350

>  <Catalog ID>
Z27879858

>  <MW (desalted)>
267.322

>  <ClogP>
3.646

>  <HBD>
1

>  <TPSA>
46.170

>  <RotBonds>
3

>  <Target>
Serine/threonine-protein kinase Chk1

>  <fromRegid>
CHEMBL242201

>  <Similarity>
0.87

$$$$
Compound 351
Actelion Java MolfileCreator 2.0

  0  0  0  0  0  0              0 V3000
M  V30 BEGIN CTAB
M  V30 COUNTS 20 21 0 0 0
M  V30 BEGIN ATOM
M  V30 1 O 0.0 0.0 0.0 0
M  V30 2 C -0.0117 1.51 0.0 0
M  V30 3 N 1.274 2.2768 0.0 0
M  V30 4 C -1.3212 2.2768 0.0 0
M  V30 5 C 2.5599 1.5336 0.0 0
M  V30 6 C -1.333 3.7868 0.0 0
M  V30 7 C -2.6307 1.5336 0.0 0
M  V30 8 C 3.8458 2.3004 0.0 0
M  V30 9 C 2.5481 0.0471 0.0 0
M  V30 10 C -2.6425 4.5418 0.0 0
M  V30 11 C -0.0471 4.5418 0.0 0
M  V30 12 C -3.9402 2.3004 0.0 0
M  V30 13 C 3.834 3.8104 0.0 0
M  V30 14 C 5.1317 1.5572 0.0 0
M  V30 15 C 3.834 -0.6842 0.0 0
M  V30 16 C -3.952 3.7986 0.0 0
M  V30 17 O 2.5245 4.5654 0.0 0
M  V30 18 C 5.1199 4.5654 0.0 0
M  V30 19 C 5.1199 0.0707 0.0 0
M  V30 20 C -5.2615 4.5536 0.0 0
M  V30 END ATOM
M  V30 BEGIN BOND
M  V30 1 2 1 2
M  V30 2 1 2 3
M  V30 3 1 2 4
M  V30 4 1 3 5
M  V30 5 2 4 6
M  V30 6 1 4 7
M  V30 7 2 5 8
M  V30 8 1 5 9
M  V30 9 1 6 10
M  V30 10 1 6 11
M  V30 11 2 7 12
M  V30 12 1 8 13
M  V30 13 1 8 14
M  V30 14 2 9 15
M  V30 15 2 10 16
M  V30 16 2 13 17
M  V30 17 1 13 18
M  V30 18 2 14 19
M  V30 19 1 16 20
M  V30 20 1 12 16
M  V30 21 1 15 19
M  V30 END BOND
M  V30 END CTAB
M  END
>  <Structure No>
351

>  <Catalog ID>
Z27879914

>  <MW (desalted)>
267.322

>  <ClogP>
3.646

>  <HBD>
1

>  <TPSA>
46.170

>  <RotBonds>
3

>  <Target>
Serine/threonine-protein kinase Chk1

>  <fromRegid>
CHEMBL242201

>  <Similarity>
0.88

$$$$
Compound 352
Actelion Java MolfileCreator 2.0

  0  0  0  0  0  0              0 V3000
M  V30 BEGIN CTAB
M  V30 COUNTS 20 21 0 0 0
M  V30 BEGIN ATOM
M  V30 1 Cl 0.0 0.0 0.0 0
M  V30 2 C 1.2921 -0.7468 0.0 0
M  V30 3 C 1.2802 -2.2404 0.0 0
M  V30 4 C 2.5842 0.0237 0.0 0
M  V30 5 C 2.5723 -2.9754 0.0 0
M  V30 6 C 3.8763 -0.7231 0.0 0
M  V30 7 C 3.8645 -2.2167 0.0 0
M  V30 8 C 5.1566 -2.9517 0.0 0
M  V30 9 C 6.4487 -2.193 0.0 0
M  V30 10 O 6.4368 -0.6756 0.0 0
M  V30 11 N 7.7408 -2.928 0.0 0
M  V30 12 C 9.0329 -2.1693 0.0 0
M  V30 13 C 9.0211 -0.6519 0.0 0
M  V30 14 C 10.3251 -2.9043 0.0 0
M  V30 15 C 10.3132 0.1185 0.0 0
M  V30 16 C 11.6172 -2.1456 0.0 0
M  V30 17 C 10.3014 1.6358 0.0 0
M  V30 18 C 11.6053 -0.6282 0.0 0
M  V30 19 O 8.9855 2.3945 0.0 0
M  V30 20 C 11.5935 2.3945 0.0 0
M  V30 END ATOM
M  V30 BEGIN BOND
M  V30 1 1 1 2
M  V30 2 2 2 3
M  V30 3 1 2 4
M  V30 4 1 3 5
M  V30 5 2 4 6
M  V30 6 2 5 7
M  V30 7 1 7 8
M  V30 8 1 8 9
M  V30 9 2 9 10
M  V30 10 1 9 11
M  V30 11 1 11 12
M  V30 12 2 12 13
M  V30 13 1 12 14
M  V30 14 1 13 15
M  V30 15 2 14 16
M  V30 16 1 15 17
M  V30 17 2 15 18
M  V30 18 2 17 19
M  V30 19 1 17 20
M  V30 20 1 6 7
M  V30 21 1 16 18
M  V30 END BOND
M  V30 END CTAB
M  END
>  <Structure No>
352

>  <Catalog ID>
Z30816350

>  <MW (desalted)>
287.741

>  <ClogP>
3.320

>  <HBD>
1

>  <TPSA>
46.170

>  <RotBonds>
4

>  <Target>
parp14

>  <fromRegid>


>  <Similarity>


$$$$
Compound 353
Actelion Java MolfileCreator 2.0

  0  0  0  0  0  0              0 V3000
M  V30 BEGIN CTAB
M  V30 COUNTS 20 21 0 0 0
M  V30 BEGIN ATOM
M  V30 1 O 0.0 0.0 0.0 0
M  V30 2 C 1.2942 -0.7361 0.0 0
M  V30 3 O 2.5885 0.0237 0.0 0
M  V30 4 C 1.2824 -2.2323 0.0 0
M  V30 5 C 2.5766 -2.9685 0.0 0
M  V30 6 C -0.0356 -2.9685 0.0 0
M  V30 7 C 2.5648 -4.4646 0.0 0
M  V30 8 C -0.0474 -4.4646 0.0 0
M  V30 9 C 1.2467 -5.2127 0.0 0
M  V30 10 C 3.859 -5.2127 0.0 0
M  V30 11 O 3.8472 -6.7088 0.0 0
M  V30 12 C 5.1414 -7.4569 0.0 0
M  V30 13 C 6.4357 -6.6851 0.0 0
M  V30 14 C 5.1296 -8.953 0.0 0
M  V30 15 C 6.4239 -5.1652 0.0 0
M  V30 16 C 7.73 -7.4332 0.0 0
M  V30 17 C 6.4239 -9.6892 0.0 0
M  V30 18 O 5.1058 -4.4053 0.0 0
M  V30 19 N 7.7181 -4.4053 0.0 0
M  V30 20 C 7.7181 -8.9293 0.0 0
M  V30 END ATOM
M  V30 BEGIN BOND
M  V30 1 2 1 2
M  V30 2 1 2 3
M  V30 3 1 2 4
M  V30 4 2 4 5
M  V30 5 1 4 6
M  V30 6 1 5 7
M  V30 7 2 6 8
M  V30 8 2 7 9
M  V30 9 1 7 10
M  V30 10 1 10 11
M  V30 11 1 11 12
M  V30 12 2 12 13
M  V30 13 1 12 14
M  V30 14 1 13 15
M  V30 15 1 13 16
M  V30 16 2 14 17
M  V30 17 2 15 18
M  V30 18 1 15 19
M  V30 19 2 16 20
M  V30 20 1 8 9
M  V30 21 1 17 20
M  V30 END BOND
M  V30 END CTAB
M  END
>  <Structure No>
353

>  <Catalog ID>
Z149200094

>  <MW (desalted)>
271.268

>  <ClogP>
2.277

>  <HBD>
2

>  <TPSA>
89.620

>  <RotBonds>
5

>  <Target>
Poly [ADP-ribose] polymerase-1

>  <fromRegid>
CHEMBL3105429

>  <Similarity>
0.89

$$$$
Compound 354
Actelion Java MolfileCreator 2.0

  0  0  0  0  0  0              0 V3000
M  V30 BEGIN CTAB
M  V30 COUNTS 20 22 0 0 0
M  V30 BEGIN ATOM
M  V30 1 Cl 0.0 0.0 0.0 0
M  V30 2 C -1.3073 0.7538 0.0 0
M  V30 3 C -2.6147 0.0235 0.0 0
M  V30 4 C -1.3191 2.2614 0.0 0
M  V30 5 O -2.6265 -1.4605 0.0 0
M  V30 6 C -3.9221 0.7773 0.0 0
M  V30 7 C -2.6265 3.027 0.0 0
M  V30 8 C -1.3427 -2.2025 0.0 0
M  V30 9 C -3.9339 2.285 0.0 0
M  V30 10 C -2.6383 4.5346 0.0 0
M  V30 11 N -3.9457 5.2884 0.0 0
M  V30 12 C -1.3545 5.2884 0.0 0
M  V30 13 N -3.9575 6.7961 0.0 0
M  V30 14 C -1.3662 6.7961 0.0 0
M  V30 15 C -0.0706 4.5464 0.0 0
M  V30 16 C -2.6736 7.5499 0.0 0
M  V30 17 C -0.0824 7.5499 0.0 0
M  V30 18 C 1.2131 5.3002 0.0 0
M  V30 19 O -2.6854 9.0575 0.0 0
M  V30 20 C 1.2013 6.8196 0.0 0
M  V30 END ATOM
M  V30 BEGIN BOND
M  V30 1 1 1 2
M  V30 2 2 2 3
M  V30 3 1 2 4
M  V30 4 1 3 5
M  V30 5 1 3 6
M  V30 6 2 4 7
M  V30 7 1 5 8
M  V30 8 2 6 9
M  V30 9 1 7 10
M  V30 10 2 10 11
M  V30 11 1 10 12
M  V30 12 1 11 13
M  V30 13 2 12 14
M  V30 14 1 12 15
M  V30 15 1 13 16
M  V30 16 1 14 17
M  V30 17 2 15 18
M  V30 18 2 16 19
M  V30 19 2 17 20
M  V30 20 1 7 9
M  V30 21 1 14 16
M  V30 22 1 18 20
M  V30 END BOND
M  V30 END CTAB
M  END
>  <Structure No>
354

>  <Catalog ID>
Z362839680

>  <MW (desalted)>
286.713

>  <ClogP>
2.810

>  <HBD>
1

>  <TPSA>
50.690

>  <RotBonds>
2

>  <Target>
parp2

>  <fromRegid>


>  <Similarity>


$$$$
Compound 355
Actelion Java MolfileCreator 2.0

  0  0  0  0  0  0              0 V3000
M  V30 BEGIN CTAB
M  V30 COUNTS 20 22 0 0 0
M  V30 BEGIN ATOM
M  V30 1 O 0.0 0.0 0.0 0
M  V30 2 C 0.4486 1.4404 0.0 0
M  V30 3 C 1.8654 1.9126 0.0 0
M  V30 4 C -0.4486 2.6683 0.0 0
M  V30 5 C 1.8536 3.4239 0.0 0
M  V30 6 C 3.1523 1.1688 0.0 0
M  V30 7 O 0.425 3.8962 0.0 0
M  V30 8 C -1.9599 2.6801 0.0 0
M  V30 9 C 3.1405 4.1913 0.0 0
M  V30 10 C 4.4393 1.9363 0.0 0
M  V30 11 C -2.7155 1.3931 0.0 0
M  V30 12 C 4.4275 3.4593 0.0 0
M  V30 13 C -4.2268 1.4049 0.0 0
M  V30 14 C -1.9835 0.1062 0.0 0
M  V30 15 O 5.7144 4.2268 0.0 0
M  V30 16 C -4.9942 0.118 0.0 0
M  V30 17 C -2.7391 -1.1806 0.0 0
M  V30 18 C -4.2504 -1.1688 0.0 0
M  V30 19 O -5.0178 -2.4557 0.0 0
M  V30 20 C -4.274 -3.7427 0.0 0
M  V30 END ATOM
M  V30 BEGIN BOND
M  V30 1 2 1 2
M  V30 2 1 2 3
M  V30 3 1 2 4
M  V30 4 2 3 5
M  V30 5 1 3 6
M  V30 6 1 4 7
M  V30 7 2 4 8 CFG=2
M  V30 8 1 5 9
M  V30 9 2 6 10
M  V30 10 1 8 11
M  V30 11 2 9 12
M  V30 12 2 11 13
M  V30 13 1 11 14
M  V30 14 1 12 15
M  V30 15 1 13 16
M  V30 16 2 14 17
M  V30 17 2 16 18
M  V30 18 1 18 19
M  V30 19 1 19 20
M  V30 20 1 5 7
M  V30 21 1 10 12
M  V30 22 1 17 18
M  V30 END BOND
M  V30 END CTAB
M  END
>  <Structure No>
355

>  <Catalog ID>
Z196385664

>  <MW (desalted)>
268.264

>  <ClogP>
3.696

>  <HBD>
1

>  <TPSA>
55.760

>  <RotBonds>
2

>  <Target>
Poly [ADP-ribose] polymerase-1

>  <fromRegid>
CHEMBL3290475

>  <Similarity>
0.86

$$$$
Compound 356
Actelion Java MolfileCreator 2.0

  0  0  0  0  0  0              0 V3000
M  V30 BEGIN CTAB
M  V30 COUNTS 20 22 0 0 0
M  V30 BEGIN ATOM
M  V30 1 O 0.0 0.0 0.0 0
M  V30 2 C 0.4469 1.4348 0.0 0
M  V30 3 C 1.8583 1.9053 0.0 0
M  V30 4 C -0.4469 2.658 0.0 0
M  V30 5 C 1.8465 3.4108 0.0 0
M  V30 6 C 3.1403 1.1643 0.0 0
M  V30 7 O 0.4234 3.8812 0.0 0
M  V30 8 C -1.9523 2.6698 0.0 0
M  V30 9 C 3.1285 4.1753 0.0 0
M  V30 10 C 4.4222 1.9288 0.0 0
M  V30 11 C -2.7051 3.9753 0.0 0
M  V30 12 C 4.4105 3.446 0.0 0
M  V30 13 C -4.2105 3.9871 0.0 0
M  V30 14 C -1.9759 5.2808 0.0 0
M  V30 15 O 5.6925 4.2105 0.0 0
M  V30 16 O -4.975 2.7051 0.0 0
M  V30 17 C -4.975 5.2926 0.0 0
M  V30 18 C -2.7286 6.5863 0.0 0
M  V30 19 C -6.4805 2.7168 0.0 0
M  V30 20 C -4.2341 6.5981 0.0 0
M  V30 END ATOM
M  V30 BEGIN BOND
M  V30 1 2 1 2
M  V30 2 1 2 3
M  V30 3 1 2 4
M  V30 4 2 3 5
M  V30 5 1 3 6
M  V30 6 1 4 7
M  V30 7 2 4 8 CFG=2
M  V30 8 1 5 9
M  V30 9 2 6 10
M  V30 10 1 8 11
M  V30 11 2 9 12
M  V30 12 2 11 13
M  V30 13 1 11 14
M  V30 14 1 12 15
M  V30 15 1 13 16
M  V30 16 1 13 17
M  V30 17 2 14 18
M  V30 18 1 16 19
M  V30 19 2 17 20
M  V30 20 1 5 7
M  V30 21 1 10 12
M  V30 22 1 18 20
M  V30 END BOND
M  V30 END CTAB
M  END
>  <Structure No>
356

>  <Catalog ID>
Z196385698

>  <MW (desalted)>
268.264

>  <ClogP>
3.696

>  <HBD>
1

>  <TPSA>
55.760

>  <RotBonds>
2

>  <Target>
Poly [ADP-ribose] polymerase-1

>  <fromRegid>
CHEMBL3290477

>  <Similarity>
0.85

$$$$
Compound 357
Actelion Java MolfileCreator 2.0

  0  0  0  0  0  0              0 V3000
M  V30 BEGIN CTAB
M  V30 COUNTS 20 22 0 0 0
M  V30 BEGIN ATOM
M  V30 1 Br 0.0 0.0 0.0 0
M  V30 2 C 1.2978 -0.7382 0.0 0
M  V30 3 C 2.5957 0.0238 0.0 0
M  V30 4 C 1.2859 -2.2385 0.0 0
M  V30 5 C 3.8936 -0.7144 0.0 0
M  V30 6 C 2.5838 -2.9767 0.0 0
M  V30 7 C 3.8817 -2.2147 0.0 0
M  V30 8 N 5.1796 -2.9529 0.0 0
M  V30 9 C 6.4775 -2.1909 0.0 0
M  V30 10 C 7.7754 -2.9291 0.0 0
M  V30 11 N 9.0732 -2.1671 0.0 0
M  V30 12 N 7.7634 -4.4294 0.0 0
M  V30 13 C 10.3711 -2.9053 0.0 0
M  V30 14 C 9.0613 -5.1796 0.0 0
M  V30 15 C 10.3592 -4.4056 0.0 0
M  V30 16 C 11.669 -2.1432 0.0 0
M  V30 17 O 9.0494 -6.6799 0.0 0
M  V30 18 C 11.6571 -5.1558 0.0 0
M  V30 19 C 12.9669 -2.8815 0.0 0
M  V30 20 C 12.955 -4.3818 0.0 0
M  V30 END ATOM
M  V30 BEGIN BOND
M  V30 1 1 1 2
M  V30 2 2 2 3
M  V30 3 1 2 4
M  V30 4 1 3 5
M  V30 5 2 4 6
M  V30 6 2 5 7
M  V30 7 1 7 8
M  V30 8 1 8 9
M  V30 9 1 9 10
M  V30 10 2 10 11
M  V30 11 1 10 12
M  V30 12 1 11 13
M  V30 13 1 12 14
M  V30 14 2 13 15
M  V30 15 1 13 16
M  V30 16 2 14 17
M  V30 17 1 15 18
M  V30 18 2 16 19
M  V30 19 2 18 20
M  V30 20 1 6 7
M  V30 21 1 14 15
M  V30 22 1 19 20
M  V30 END BOND
M  V30 END CTAB
M  END
>  <Structure No>
357

>  <Catalog ID>
Z44495149

>  <MW (desalted)>
330.179

>  <ClogP>
2.417

>  <HBD>
2

>  <TPSA>
53.490

>  <RotBonds>
3

>  <Target>
parp2

>  <fromRegid>


>  <Similarity>


$$$$
Compound 358
Actelion Java MolfileCreator 2.0

  0  0  0  0  0  0              0 V3000
M  V30 BEGIN CTAB
M  V30 COUNTS 20 22 0 0 0
M  V30 BEGIN ATOM
M  V30 1 S 0.0 0.0 0.0 0
M  V30 2 C -0.1646 1.4933 0.0 0
M  V30 3 C 1.4463 -0.2939 0.0 0
M  V30 4 S -1.4698 2.2576 0.0 0
M  V30 5 N 1.1876 2.1165 0.0 0
M  V30 6 N 2.1871 1.0112 0.0 0
M  V30 7 N 2.046 -1.6462 0.0 0
M  V30 8 C -1.4815 3.7627 0.0 0
M  V30 9 C -2.7868 4.5271 0.0 0
M  V30 10 N -4.092 3.7863 0.0 0
M  V30 11 N -2.7985 6.0322 0.0 0
M  V30 12 C -5.3972 4.5506 0.0 0
M  V30 13 C -4.1037 6.7847 0.0 0
M  V30 14 C -5.409 6.0557 0.0 0
M  V30 15 C -6.7024 3.8098 0.0 0
M  V30 16 O -4.1155 8.2898 0.0 0
M  V30 17 C -6.7142 6.8082 0.0 0
M  V30 18 C -8.0076 4.5741 0.0 0
M  V30 19 C -6.7142 2.3282 0.0 0
M  V30 20 C -8.0194 6.0792 0.0 0
M  V30 END ATOM
M  V30 BEGIN BOND
M  V30 1 1 1 2
M  V30 2 1 1 3
M  V30 3 1 2 4
M  V30 4 2 2 5
M  V30 5 2 3 6
M  V30 6 1 3 7
M  V30 7 1 4 8
M  V30 8 1 8 9
M  V30 9 2 9 10
M  V30 10 1 9 11
M  V30 11 1 10 12
M  V30 12 1 11 13
M  V30 13 2 12 14
M  V30 14 1 12 15
M  V30 15 2 13 16
M  V30 16 1 14 17
M  V30 17 2 15 18
M  V30 18 1 15 19
M  V30 19 2 17 20
M  V30 20 1 5 6
M  V30 21 1 13 14
M  V30 22 1 18 20
M  V30 END BOND
M  V30 END CTAB
M  END
>  <Structure No>
358

>  <Catalog ID>
Z96209211

>  <MW (desalted)>
305.379

>  <ClogP>
0.607

>  <HBD>
2

>  <TPSA>
93.260

>  <RotBonds>
3

>  <Target>
Tankyrase1

>  <fromRegid>


>  <Similarity>


$$$$
Compound 359
Actelion Java MolfileCreator 2.0

  0  0  0  0  0  0              0 V3000
M  V30 BEGIN CTAB
M  V30 COUNTS 20 22 0 0 0
M  V30 BEGIN ATOM
M  V30 1 S 0.0 0.0 0.0 0
M  V30 2 C 1.2847 -0.7425 0.0 0
M  V30 3 C -0.0117 1.5087 0.0 0
M  V30 4 N 2.6402 -0.1178 0.0 0
M  V30 5 N 1.4262 -2.2159 0.0 0
M  V30 6 C -1.3201 2.2748 0.0 0
M  V30 7 N 3.6303 -1.214 0.0 0
M  V30 8 C 2.876 -2.5106 0.0 0
M  V30 9 N -2.6284 1.5322 0.0 0
M  V30 10 N -1.3319 3.7835 0.0 0
M  V30 11 N 3.4771 -3.8661 0.0 0
M  V30 12 C -3.9368 2.2984 0.0 0
M  V30 13 C -2.6402 4.5379 0.0 0
M  V30 14 C -3.9486 3.8071 0.0 0
M  V30 15 C -5.2451 1.5558 0.0 0
M  V30 16 O -2.652 6.0466 0.0 0
M  V30 17 C -5.2569 4.5615 0.0 0
M  V30 18 C -6.5535 2.322 0.0 0
M  V30 19 C -5.2569 0.0707 0.0 0
M  V30 20 C -6.5653 3.8307 0.0 0
M  V30 END ATOM
M  V30 BEGIN BOND
M  V30 1 1 1 2
M  V30 2 1 1 3
M  V30 3 2 2 4
M  V30 4 1 2 5
M  V30 5 1 3 6
M  V30 6 1 4 7
M  V30 7 1 5 8
M  V30 8 2 6 9
M  V30 9 1 6 10
M  V30 10 1 8 11
M  V30 11 1 9 12
M  V30 12 1 10 13
M  V30 13 2 12 14
M  V30 14 1 12 15
M  V30 15 2 13 16
M  V30 16 1 14 17
M  V30 17 2 15 18
M  V30 18 1 15 19
M  V30 19 2 17 20
M  V30 20 2 7 8
M  V30 21 1 13 14
M  V30 22 1 18 20
M  V30 END BOND
M  V30 END CTAB
M  END
>  <Structure No>
359

>  <Catalog ID>
Z96184293

>  <MW (desalted)>
288.328

>  <ClogP>
0.286

>  <HBD>
3

>  <TPSA>
109.050

>  <RotBonds>
3

>  <Target>
parp15, parp1

>  <fromRegid>


>  <Similarity>


$$$$
Compound 360
Actelion Java MolfileCreator 2.0

  0  0  0  0  0  0              0 V3000
M  V30 BEGIN CTAB
M  V30 COUNTS 20 22 0 0 0
M  V30 BEGIN ATOM
M  V30 1 F 0.0 0.0 0.0 0
M  V30 2 C -1.3073 0.7538 0.0 0
M  V30 3 C -2.6147 0.0235 0.0 0
M  V30 4 C -1.3191 2.2614 0.0 0
M  V30 5 O -2.6265 -1.4605 0.0 0
M  V30 6 C -3.9221 0.7773 0.0 0
M  V30 7 C -2.6265 3.027 0.0 0
M  V30 8 C -1.3427 -2.2025 0.0 0
M  V30 9 C -3.9339 2.285 0.0 0
M  V30 10 C -2.6383 4.5346 0.0 0
M  V30 11 N -3.9457 5.2884 0.0 0
M  V30 12 C -1.3545 5.2884 0.0 0
M  V30 13 N -3.9575 6.7961 0.0 0
M  V30 14 C -1.3662 6.7961 0.0 0
M  V30 15 C -0.0706 4.5464 0.0 0
M  V30 16 C -2.6736 7.5499 0.0 0
M  V30 17 C -0.0824 7.5499 0.0 0
M  V30 18 C 1.2131 5.3002 0.0 0
M  V30 19 O -2.6854 9.0575 0.0 0
M  V30 20 C 1.2013 6.8196 0.0 0
M  V30 END ATOM
M  V30 BEGIN BOND
M  V30 1 1 1 2
M  V30 2 2 2 3
M  V30 3 1 2 4
M  V30 4 1 3 5
M  V30 5 1 3 6
M  V30 6 2 4 7
M  V30 7 1 5 8
M  V30 8 2 6 9
M  V30 9 1 7 10
M  V30 10 2 10 11
M  V30 11 1 10 12
M  V30 12 1 11 13
M  V30 13 2 12 14
M  V30 14 1 12 15
M  V30 15 1 13 16
M  V30 16 1 14 17
M  V30 17 2 15 18
M  V30 18 2 16 19
M  V30 19 2 17 20
M  V30 20 1 7 9
M  V30 21 1 14 16
M  V30 22 1 18 20
M  V30 END BOND
M  V30 END CTAB
M  END
>  <Structure No>
360

>  <Catalog ID>
Z425469912

>  <MW (desalted)>
270.258

>  <ClogP>
2.270

>  <HBD>
1

>  <TPSA>
50.690

>  <RotBonds>
2

>  <Target>
parp2

>  <fromRegid>


>  <Similarity>


$$$$
Compound 361
Actelion Java MolfileCreator 2.0

  0  0  0  0  0  0              0 V3000
M  V30 BEGIN CTAB
M  V30 COUNTS 20 20 0 0 0
M  V30 BEGIN ATOM
M  V30 1 O 0.0 0.0 0.0 0
M  V30 2 C -1.3126 0.7686 0.0 0
M  V30 3 N -2.6253 0.0236 0.0 0
M  V30 4 C -1.3245 2.2824 0.0 0
M  V30 5 C -2.6372 -1.4664 0.0 0
M  V30 6 C -0.0354 3.0392 0.0 0
M  V30 7 C -2.6372 3.0392 0.0 0
M  V30 8 C -3.9498 -2.2114 0.0 0
M  V30 9 C -0.0473 4.553 0.0 0
M  V30 10 C -2.649 4.553 0.0 0
M  V30 11 N 1.2417 5.3098 0.0 0
M  V30 12 C -1.3599 5.3098 0.0 0
M  V30 13 C 2.5307 4.5766 0.0 0
M  V30 14 O 2.5189 3.0865 0.0 0
M  V30 15 C 3.8198 5.3335 0.0 0
M  V30 16 C 5.1088 4.6003 0.0 0
M  V30 17 C 6.3978 5.3571 0.0 0
M  V30 18 C 7.6869 4.6239 0.0 0
M  V30 19 O 8.9759 5.3808 0.0 0
M  V30 20 O 7.675 3.1338 0.0 0
M  V30 END ATOM
M  V30 BEGIN BOND
M  V30 1 2 1 2
M  V30 2 1 2 3
M  V30 3 1 2 4
M  V30 4 1 3 5
M  V30 5 2 4 6
M  V30 6 1 4 7
M  V30 7 1 5 8
M  V30 8 1 6 9
M  V30 9 2 7 10
M  V30 10 1 9 11
M  V30 11 2 9 12
M  V30 12 1 11 13
M  V30 13 2 13 14
M  V30 14 1 13 15
M  V30 15 1 15 16
M  V30 16 1 16 17
M  V30 17 1 17 18
M  V30 18 2 18 19
M  V30 19 1 18 20
M  V30 20 1 10 12
M  V30 END BOND
M  V30 END CTAB
M  END
>  <Structure No>
361

>  <Catalog ID>
Z90425248

>  <MW (desalted)>
278.304

>  <ClogP>
0.860

>  <HBD>
3

>  <TPSA>
95.500

>  <RotBonds>
7

>  <Target>
Poly [ADP-ribose] polymerase-1

>  <fromRegid>
CHEMBL3414770

>  <Similarity>
0.91

$$$$
Compound 362
Actelion Java MolfileCreator 2.0

  0  0  0  0  0  0              0 V3000
M  V30 BEGIN CTAB
M  V30 COUNTS 20 21 0 0 0
M  V30 BEGIN ATOM
M  V30 1 O 0.0 0.0 0.0 0
M  V30 2 C -0.0117 1.5053 0.0 0
M  V30 3 N 1.2701 2.2697 0.0 0
M  V30 4 C -1.3171 2.2697 0.0 0
M  V30 5 C 2.552 1.5288 0.0 0
M  V30 6 C -2.6226 1.5288 0.0 0
M  V30 7 C -1.3289 3.7751 0.0 0
M  V30 8 C 4.0338 1.5406 0.0 0
M  V30 9 C 3.2811 0.2469 0.0 0
M  V30 10 C -3.928 2.2933 0.0 0
M  V30 11 C -2.6343 4.5278 0.0 0
M  V30 12 N -5.2334 1.5523 0.0 0
M  V30 13 C -3.9397 3.7986 0.0 0
M  V30 14 C -6.5388 2.3168 0.0 0
M  V30 15 O -6.5506 3.8221 0.0 0
M  V30 16 C -7.8442 1.5759 0.0 0
M  V30 17 C -9.1496 2.3403 0.0 0
M  V30 18 C -10.4551 1.5994 0.0 0
M  V30 19 O -10.4668 0.1176 0.0 0
M  V30 20 O -11.7605 2.3638 0.0 0
M  V30 END ATOM
M  V30 BEGIN BOND
M  V30 1 2 1 2
M  V30 2 1 2 3
M  V30 3 1 2 4
M  V30 4 1 3 5
M  V30 5 2 4 6
M  V30 6 1 4 7
M  V30 7 1 5 8
M  V30 8 1 5 9
M  V30 9 1 6 10
M  V30 10 2 7 11
M  V30 11 1 10 12
M  V30 12 2 10 13
M  V30 13 1 12 14
M  V30 14 2 14 15
M  V30 15 1 14 16
M  V30 16 1 16 17
M  V30 17 1 17 18
M  V30 18 2 18 19
M  V30 19 1 18 20
M  V30 20 1 8 9
M  V30 21 1 11 13
M  V30 END BOND
M  V30 END CTAB
M  END
>  <Structure No>
362

>  <Catalog ID>
Z432037678

>  <MW (desalted)>
276.288

>  <ClogP>
0.541

>  <HBD>
3

>  <TPSA>
95.500

>  <RotBonds>
6

>  <Target>
Poly [ADP-ribose] polymerase-1

>  <fromRegid>
CHEMBL3414756

>  <Similarity>
0.86

$$$$
Compound 363
Actelion Java MolfileCreator 2.0

  0  0  0  0  0  0              0 V3000
M  V30 BEGIN CTAB
M  V30 COUNTS 20 22 0 0 0
M  V30 BEGIN ATOM
M  V30 1 O 0.0 0.0 0.0 0
M  V30 2 C -0.0118 -1.4974 0.0 0
M  V30 3 N -1.331 -2.2342 0.0 0
M  V30 4 C 1.2835 -2.2342 0.0 0
M  V30 5 N -1.3429 -3.7317 0.0 0
M  V30 6 C 1.2716 -3.7317 0.0 0
M  V30 7 C 2.5789 -1.4736 0.0 0
M  V30 8 C -0.0475 -4.4804 0.0 0
M  V30 9 C 2.567 -4.4804 0.0 0
M  V30 10 C 3.8743 -2.2105 0.0 0
M  V30 11 C -0.0594 -5.9778 0.0 0
M  V30 12 C 3.8624 -3.7198 0.0 0
M  V30 13 O -1.3786 -6.7266 0.0 0
M  V30 14 N 1.2359 -6.7266 0.0 0
M  V30 15 C 1.2241 -8.224 0.0 0
M  V30 16 C 2.5313 -5.9541 0.0 0
M  V30 17 C 2.5195 -8.9609 0.0 0
M  V30 18 C 3.8268 -6.7028 0.0 0
M  V30 19 N 3.8149 -8.2002 0.0 0
M  V30 20 C 5.1103 -8.9371 0.0 0
M  V30 END ATOM
M  V30 BEGIN BOND
M  V30 1 2 1 2
M  V30 2 1 2 3
M  V30 3 1 2 4
M  V30 4 1 3 5
M  V30 5 2 4 6
M  V30 6 1 4 7
M  V30 7 2 5 8
M  V30 8 1 6 9
M  V30 9 2 7 10
M  V30 10 1 8 11
M  V30 11 2 9 12
M  V30 12 2 11 13
M  V30 13 1 11 14
M  V30 14 1 14 15
M  V30 15 1 14 16
M  V30 16 1 15 17
M  V30 17 1 16 18
M  V30 18 1 17 19
M  V30 19 1 19 20
M  V30 20 1 6 8
M  V30 21 1 10 12
M  V30 22 1 18 19
M  V30 END BOND
M  V30 END CTAB
M  END
>  <Structure No>
363

>  <Catalog ID>
Z31433955

>  <MW (desalted)>
272.302

>  <ClogP>
-0.535

>  <HBD>
1

>  <TPSA>
65.010

>  <RotBonds>
1

>  <Target>
Poly [ADP-ribose] polymerase-1

>  <fromRegid>
CHEMBL3105422

>  <Similarity>
0.89

$$$$
Compound 364
Actelion Java MolfileCreator 2.0

  0  0  0  0  0  0              0 V3000
M  V30 BEGIN CTAB
M  V30 COUNTS 20 22 0 0 0
M  V30 BEGIN ATOM
M  V30 1 S 0.0 0.0 0.0 0
M  V30 2 O 1.4911 0.0118 0.0 0
M  V30 3 O -1.5147 0.0118 0.0 0
M  V30 4 N -0.0118 -1.4911 0.0 0
M  V30 5 C -0.0118 1.5147 0.0 0
M  V30 6 C -1.3727 -2.1301 0.0 0
M  V30 7 C 1.3254 -2.1301 0.0 0
M  V30 8 C 1.278 2.2721 0.0 0
M  V30 9 C -1.3254 2.2721 0.0 0
M  V30 10 C -1.7159 -3.5857 0.0 0
M  V30 11 C 1.6449 -3.5857 0.0 0
M  V30 12 C 1.2662 3.7869 0.0 0
M  V30 13 C 2.568 1.5266 0.0 0
M  V30 14 C -1.3372 3.7869 0.0 0
M  V30 15 N -0.7928 -4.7455 0.0 0
M  V30 16 C 0.6982 -4.7455 0.0 0
M  V30 17 C 2.5561 4.5443 0.0 0
M  V30 18 C -0.0473 4.5443 0.0 0
M  V30 19 C 3.8579 2.284 0.0 0
M  V30 20 N 3.8461 3.8106 0.0 0
M  V30 END ATOM
M  V30 BEGIN BOND
M  V30 1 2 1 2
M  V30 2 2 1 3
M  V30 3 1 1 4
M  V30 4 1 1 5
M  V30 5 1 4 6
M  V30 6 1 4 7
M  V30 7 1 5 8
M  V30 8 2 5 9
M  V30 9 1 6 10
M  V30 10 1 7 11
M  V30 11 1 8 12
M  V30 12 2 8 13
M  V30 13 1 9 14
M  V30 14 1 10 15
M  V30 15 1 11 16
M  V30 16 2 12 17
M  V30 17 1 12 18
M  V30 18 1 13 19
M  V30 19 1 17 20
M  V30 20 2 14 18
M  V30 21 1 15 16
M  V30 22 2 19 20
M  V30 END BOND
M  V30 END CTAB
M  END
>  <Structure No>
364

>  <Catalog ID>
Z432085130

>  <MW (desalted)>
291.369

>  <ClogP>
1.038

>  <HBD>
1

>  <TPSA>
62.300

>  <RotBonds>
1

>  <Target>
Serine/threonine-protein kinase Chk2

>  <fromRegid>
CHEMBL38380

>  <Similarity>
1.0

$$$$
Compound 365
Actelion Java MolfileCreator 2.0

  0  0  0  0  0  0              0 V3000
M  V30 BEGIN CTAB
M  V30 COUNTS 20 22 0 0 0
M  V30 BEGIN ATOM
M  V30 1 Br 0.0 0.0 0.0 0
M  V30 2 C -0.0117 1.5072 0.0 0
M  V30 3 C -1.3188 2.2608 0.0 0
M  V30 4 C 1.2717 2.2608 0.0 0
M  V30 5 C -2.6258 1.5189 0.0 0
M  V30 6 C -1.3305 3.768 0.0 0
M  V30 7 C 1.2599 3.768 0.0 0
M  V30 8 O -3.9329 2.2726 0.0 0
M  V30 9 N -2.6376 0.0353 0.0 0
M  V30 10 C -0.0471 4.5216 0.0 0
M  V30 11 C -3.9446 -0.6947 0.0 0
M  V30 12 F -0.0588 6.0288 0.0 0
M  V30 13 C -5.2517 0.0588 0.0 0
M  V30 14 C -3.9564 -2.1784 0.0 0
M  V30 15 C -6.5587 -0.6711 0.0 0
M  V30 16 C -5.2635 -2.9084 0.0 0
M  V30 17 C -6.5705 -2.1548 0.0 0
M  V30 18 C -7.9953 -0.2001 0.0 0
M  V30 19 N -8.0071 -2.6023 0.0 0
M  V30 20 N -8.8902 -1.4012 0.0 0
M  V30 END ATOM
M  V30 BEGIN BOND
M  V30 1 1 1 2
M  V30 2 2 2 3
M  V30 3 1 2 4
M  V30 4 1 3 5
M  V30 5 1 3 6
M  V30 6 2 4 7
M  V30 7 2 5 8
M  V30 8 1 5 9
M  V30 9 2 6 10
M  V30 10 1 9 11
M  V30 11 1 10 12
M  V30 12 2 11 13
M  V30 13 1 11 14
M  V30 14 1 13 15
M  V30 15 2 14 16
M  V30 16 2 15 17
M  V30 17 1 15 18
M  V30 18 1 17 19
M  V30 19 2 18 20
M  V30 20 1 7 10
M  V30 21 1 16 17
M  V30 22 1 19 20
M  V30 END BOND
M  V30 END CTAB
M  END
>  <Structure No>
365

>  <Catalog ID>
Z237451704

>  <MW (desalted)>
334.143

>  <ClogP>
2.901

>  <HBD>
2

>  <TPSA>
57.780

>  <RotBonds>
2

>  <Target>
Serine/threonine-protein kinase Chk1

>  <fromRegid>
CHEMBL1461728

>  <Similarity>
0.86

$$$$
Compound 366
Actelion Java MolfileCreator 2.0

  0  0  0  0  0  0              0 V3000
M  V30 BEGIN CTAB
M  V30 COUNTS 22 21 0 0 0
M  V30 BEGIN ATOM
M  V30 1 Cl 0.0 0.0 0.0 0
M  V30 2 Cl 3.6031 0.0948 0.0 0
M  V30 3 S -1.043 -5.8788 0.0 0
M  V30 4 O -0.3081 -7.1707 0.0 0
M  V30 5 O -1.8015 -4.5632 0.0 0
M  V30 6 N -2.3586 -6.6255 0.0 0
M  V30 7 C 0.2489 -5.1202 0.0 0
M  V30 8 C -2.3704 -8.1189 0.0 0
M  V30 9 C -3.6742 -5.8669 0.0 0
M  V30 10 C 1.5408 -5.8551 0.0 0
M  V30 11 C 0.237 -3.6031 0.0 0
M  V30 12 C -1.0785 -8.8538 0.0 0
M  V30 13 C -4.9898 -6.6136 0.0 0
M  V30 14 C 2.8327 -5.0965 0.0 0
M  V30 15 C 1.5289 -7.3485 0.0 0
M  V30 16 C 1.5289 -2.8445 0.0 0
M  V30 17 N -1.0904 -10.3472 0.0 0
M  V30 18 C -6.3055 -5.8551 0.0 0
M  V30 19 C 4.1246 -5.8314 0.0 0
M  V30 20 C 2.8208 -3.5794 0.0 0
M  V30 21 C 2.8208 -8.0833 0.0 0
M  V30 22 N 4.1128 -7.3248 0.0 0
M  V30 END ATOM
M  V30 BEGIN BOND
M  V30 1 2 3 4
M  V30 2 2 3 5
M  V30 3 1 3 6
M  V30 4 1 3 7
M  V30 5 1 6 8
M  V30 6 1 6 9
M  V30 7 1 7 10
M  V30 8 2 7 11
M  V30 9 1 8 12
M  V30 10 1 9 13
M  V30 11 1 10 14
M  V30 12 2 10 15
M  V30 13 1 11 16
M  V30 14 1 12 17
M  V30 15 1 13 18
M  V30 16 2 14 19
M  V30 17 1 14 20
M  V30 18 1 15 21
M  V30 19 1 19 22
M  V30 20 2 16 20
M  V30 21 2 21 22
M  V30 END BOND
M  V30 END CTAB
M  END
>  <Structure No>
366

>  <Catalog ID>
Z2044731698

>  <MW (desalted)>
293.385

>  <ClogP>
1.770

>  <HBD>
1

>  <TPSA>
76.290

>  <RotBonds>
5

>  <Target>
Serine/threonine-protein kinase Chk2

>  <fromRegid>
CHEMBL38380

>  <Similarity>
0.98

$$$$
Compound 367
Actelion Java MolfileCreator 2.0

  0  0  0  0  0  0              0 V3000
M  V30 BEGIN CTAB
M  V30 COUNTS 20 22 0 0 0
M  V30 BEGIN ATOM
M  V30 1 F 0.0 0.0 0.0 0
M  V30 2 C 0.7442 1.3112 0.0 0
M  V30 3 C -0.0236 2.6224 0.0 0
M  V30 4 C 2.2326 1.323 0.0 0
M  V30 5 C 0.7205 3.9336 0.0 0
M  V30 6 C 2.9768 2.6342 0.0 0
M  V30 7 C 2.2089 3.9454 0.0 0
M  V30 8 N 2.9532 5.2567 0.0 0
M  V30 9 C 4.4416 5.2685 0.0 0
M  V30 10 C 5.174 6.5797 0.0 0
M  V30 11 N 6.6624 6.5915 0.0 0
M  V30 12 N 7.5365 7.82 0.0 0
M  V30 13 C 7.5365 5.3866 0.0 0
M  V30 14 C 8.9541 7.3711 0.0 0
M  V30 15 O 7.064 3.9691 0.0 0
M  V30 16 N 8.9541 5.8591 0.0 0
M  V30 17 C 10.2417 8.139 0.0 0
M  V30 18 C 10.2417 5.1149 0.0 0
M  V30 19 C 11.5293 7.4066 0.0 0
M  V30 20 C 11.5293 5.8827 0.0 0
M  V30 END ATOM
M  V30 BEGIN BOND
M  V30 1 1 1 2
M  V30 2 2 2 3
M  V30 3 1 2 4
M  V30 4 1 3 5
M  V30 5 2 4 6
M  V30 6 2 5 7
M  V30 7 1 7 8
M  V30 8 1 8 9
M  V30 9 1 9 10
M  V30 10 1 10 11
M  V30 11 1 11 12
M  V30 12 1 11 13
M  V30 13 2 12 14
M  V30 14 2 13 15
M  V30 15 1 13 16
M  V30 16 1 14 17
M  V30 17 1 16 18
M  V30 18 2 17 19
M  V30 19 2 18 20
M  V30 20 1 6 7
M  V30 21 1 14 16
M  V30 22 1 19 20
M  V30 END BOND
M  V30 END CTAB
M  END
>  <Structure No>
367

>  <Catalog ID>
Z368662882

>  <MW (desalted)>
272.278

>  <ClogP>
2.756

>  <HBD>
1

>  <TPSA>
47.940

>  <RotBonds>
4

>  <Target>
DNA_pk

>  <fromRegid>


>  <Similarity>


$$$$
Compound 368
Actelion Java MolfileCreator 2.0

  0  0  0  0  0  0              0 V3000
M  V30 BEGIN CTAB
M  V30 COUNTS 21 22 0 0 0
M  V30 BEGIN ATOM
M  V30 1 Cl 0.0 0.0 0.0 0
M  V30 2 S 5.4887 -0.4731 0.0 0
M  V30 3 O 6.9792 -0.4613 0.0 0
M  V30 4 O 3.9746 -0.4613 0.0 0
M  V30 5 N 5.4769 -1.9636 0.0 0
M  V30 6 C 5.4769 1.0409 0.0 0
M  V30 7 C 6.7663 -2.697 0.0 0 CFG=2
M  V30 8 C 4.1638 -2.697 0.0 0
M  V30 9 C 6.7663 1.798 0.0 0
M  V30 10 C 4.1638 1.798 0.0 0
M  V30 11 C 6.7545 -4.1875 0.0 0
M  V30 12 C 8.0557 -1.9281 0.0 0
M  V30 13 C 4.152 -4.1875 0.0 0
M  V30 14 C 6.7545 3.3121 0.0 0
M  V30 15 C 8.0557 1.0646 0.0 0
M  V30 16 C 4.152 3.3121 0.0 0
M  V30 17 N 5.4414 -4.9209 0.0 0
M  V30 18 C 8.0438 4.0692 0.0 0
M  V30 19 C 5.4414 4.081 0.0 0
M  V30 20 C 9.3451 1.8217 0.0 0
M  V30 21 N 9.3332 3.3358 0.0 0
M  V30 END ATOM
M  V30 BEGIN BOND
M  V30 1 2 2 3
M  V30 2 2 2 4
M  V30 3 1 2 5
M  V30 4 1 2 6
M  V30 5 1 5 7
M  V30 6 1 5 8
M  V30 7 1 6 9
M  V30 8 2 6 10
M  V30 9 1 7 11
M  V30 10 1 7 12 CFG=1
M  V30 11 1 8 13
M  V30 12 1 9 14
M  V30 13 2 9 15
M  V30 14 1 10 16
M  V30 15 1 11 17
M  V30 16 2 14 18
M  V30 17 1 14 19
M  V30 18 1 15 20
M  V30 19 1 18 21
M  V30 20 1 13 17
M  V30 21 2 16 19
M  V30 22 2 20 21
M  V30 END BOND
M  V30 BEGIN COLLECTION
M  V30 MDLV30/STERAC1 ATOMS=(1 7)
M  V30 END COLLECTION
M  V30 END CTAB
M  END
>  <Structure No>
368

>  <Catalog ID>
Z1491263437

>  <MW (desalted)>
291.369

>  <ClogP>
1.578

>  <HBD>
1

>  <TPSA>
62.300

>  <RotBonds>
1

>  <Target>
Serine/threonine-protein kinase Chk2

>  <fromRegid>
CHEMBL38380

>  <Similarity>
0.9

$$$$
Compound 369
Actelion Java MolfileCreator 2.0

  0  0  0  0  0  0              0 V3000
M  V30 BEGIN CTAB
M  V30 COUNTS 20 21 0 0 0
M  V30 BEGIN ATOM
M  V30 1 S 0.0 0.0 0.0 0
M  V30 2 O 0.7454 -1.2897 0.0 0
M  V30 3 O -0.7572 1.3133 0.0 0
M  V30 4 N -1.3133 -0.7336 0.0 0
M  V30 5 C 1.2897 0.7572 0.0 0
M  V30 6 C -2.6267 0.0236 0.0 0
M  V30 7 C 2.5794 0.0236 0.0 0
M  V30 8 C 1.2778 2.2718 0.0 0
M  V30 9 C -3.9401 -0.7099 0.0 0
M  V30 10 C 3.8691 0.7809 0.0 0
M  V30 11 C 2.5676 -1.4672 0.0 0
M  V30 12 C 2.5676 3.029 0.0 0
M  V30 13 N -5.2535 0.0473 0.0 0
M  V30 14 C 5.1589 0.0473 0.0 0
M  V30 15 C 3.8573 2.2954 0.0 0
M  V30 16 C 3.8573 -2.2008 0.0 0
M  V30 17 C -6.5669 -0.6862 0.0 0
M  V30 18 N 5.147 -1.4435 0.0 0
M  V30 19 C -7.8803 0.0709 0.0 0
M  V30 20 C -9.1937 -0.6626 0.0 0
M  V30 END ATOM
M  V30 BEGIN BOND
M  V30 1 2 1 2
M  V30 2 2 1 3
M  V30 3 1 1 4
M  V30 4 1 1 5
M  V30 5 1 4 6
M  V30 6 1 5 7
M  V30 7 2 5 8
M  V30 8 1 6 9
M  V30 9 1 7 10
M  V30 10 2 7 11
M  V30 11 1 8 12
M  V30 12 1 9 13
M  V30 13 2 10 14
M  V30 14 1 10 15
M  V30 15 1 11 16
M  V30 16 1 13 17
M  V30 17 1 14 18
M  V30 18 1 17 19
M  V30 19 1 19 20
M  V30 20 2 12 15
M  V30 21 2 16 18
M  V30 END BOND
M  V30 END CTAB
M  END
>  <Structure No>
369

>  <Catalog ID>
Z994855764

>  <MW (desalted)>
293.385

>  <ClogP>
2.266

>  <HBD>
2

>  <TPSA>
71.090

>  <RotBonds>
6

>  <Target>
Serine/threonine-protein kinase Chk2

>  <fromRegid>
CHEMBL38380

>  <Similarity>
0.91

$$$$
Compound 370
Actelion Java MolfileCreator 2.0

  0  0  0  0  0  0              0 V3000
M  V30 BEGIN CTAB
M  V30 COUNTS 20 20 0 0 0
M  V30 BEGIN ATOM
M  V30 1 O 0.0 0.0 0.0 0
M  V30 2 C -0.0118 1.5113 0.0 0
M  V30 3 N -1.3224 2.2669 0.0 0
M  V30 4 C 1.2751 2.2669 0.0 0
M  V30 5 C 1.2633 3.7782 0.0 0
M  V30 6 C 2.5621 1.5349 0.0 0
M  V30 7 C 2.5503 4.5339 0.0 0
M  V30 8 C 3.8491 2.2905 0.0 0
M  V30 9 N 2.5385 6.0452 0.0 0
M  V30 10 C 3.8373 3.8019 0.0 0
M  V30 11 C 3.8255 6.8009 0.0 0
M  V30 12 O 5.1125 6.0688 0.0 0
M  V30 13 C 3.8137 8.3122 0.0 0
M  V30 14 C 5.1007 9.0797 0.0 0
M  V30 15 C 6.3876 9.8353 0.0 0
M  V30 16 C 4.345 10.3903 0.0 0
M  V30 17 C 5.8445 7.7927 0.0 0
M  V30 18 C 6.3758 11.3466 0.0 0
M  V30 19 O 7.6628 12.1141 0.0 0
M  V30 20 O 5.0652 12.1141 0.0 0
M  V30 END ATOM
M  V30 BEGIN BOND
M  V30 1 2 1 2
M  V30 2 1 2 3
M  V30 3 1 2 4
M  V30 4 2 4 5
M  V30 5 1 4 6
M  V30 6 1 5 7
M  V30 7 2 6 8
M  V30 8 1 7 9
M  V30 9 2 7 10
M  V30 10 1 9 11
M  V30 11 2 11 12
M  V30 12 1 11 13
M  V30 13 1 13 14
M  V30 14 1 14 15
M  V30 15 1 14 16
M  V30 16 1 14 17
M  V30 17 1 15 18
M  V30 18 2 18 19
M  V30 19 1 18 20
M  V30 20 1 8 10
M  V30 END BOND
M  V30 END CTAB
M  END
>  <Structure No>
370

>  <Catalog ID>
Z221346208

>  <MW (desalted)>
278.304

>  <ClogP>
0.923

>  <HBD>
3

>  <TPSA>
109.490

>  <RotBonds>
6

>  <Target>
Poly [ADP-ribose] polymerase-1

>  <fromRegid>
CHEMBL3414770

>  <Similarity>
0.91

$$$$
Compound 371
Actelion Java MolfileCreator 2.0

  0  0  0  0  0  0              0 V3000
M  V30 BEGIN CTAB
M  V30 COUNTS 21 22 0 0 0
M  V30 BEGIN ATOM
M  V30 1 Cl 0.0 0.0 0.0 0
M  V30 2 S 8.1249 -0.4723 0.0 0
M  V30 3 O 9.6129 -0.4605 0.0 0
M  V30 4 O 6.6133 -0.4605 0.0 0
M  V30 5 N 8.1131 -1.9603 0.0 0
M  V30 6 C 8.1131 1.0392 0.0 0
M  V30 7 C 6.8022 -2.7043 0.0 0 CFG=2
M  V30 8 C 9.4003 1.795 0.0 0
M  V30 9 C 6.8022 1.795 0.0 0
M  V30 10 C 5.4914 -1.9485 0.0 0
M  V30 11 C 6.7904 -4.1923 0.0 0
M  V30 12 C 9.3885 3.3066 0.0 0
M  V30 13 C 10.6875 1.0628 0.0 0
M  V30 14 C 6.7904 3.3066 0.0 0
M  V30 15 N 4.1805 -2.6807 0.0 0
M  V30 16 C 5.4796 -4.9245 0.0 0
M  V30 17 C 10.6757 4.0624 0.0 0
M  V30 18 C 8.0776 4.0624 0.0 0
M  V30 19 C 11.9748 1.8186 0.0 0
M  V30 20 C 4.1687 -4.1687 0.0 0
M  V30 21 N 11.963 3.3184 0.0 0
M  V30 END ATOM
M  V30 BEGIN BOND
M  V30 1 2 2 3
M  V30 2 2 2 4
M  V30 3 1 2 5
M  V30 4 1 2 6
M  V30 5 1 7 5 CFG=1
M  V30 6 1 6 8
M  V30 7 2 6 9
M  V30 8 1 7 10
M  V30 9 1 7 11
M  V30 10 1 8 12
M  V30 11 2 8 13
M  V30 12 1 9 14
M  V30 13 1 10 15
M  V30 14 1 11 16
M  V30 15 2 12 17
M  V30 16 1 12 18
M  V30 17 1 13 19
M  V30 18 1 15 20
M  V30 19 1 17 21
M  V30 20 2 14 18
M  V30 21 1 16 20
M  V30 22 2 19 21
M  V30 END BOND
M  V30 BEGIN COLLECTION
M  V30 MDLV30/STERAC1 ATOMS=(1 7)
M  V30 END COLLECTION
M  V30 END CTAB
M  END
>  <Structure No>
371

>  <Catalog ID>
Z1491234214

>  <MW (desalted)>
291.369

>  <ClogP>
1.827

>  <HBD>
2

>  <TPSA>
71.090

>  <RotBonds>
2

>  <Target>
CHK2

>  <fromRegid>


>  <Similarity>


$$$$
Compound 372
Actelion Java MolfileCreator 2.0

  0  0  0  0  0  0              0 V3000
M  V30 BEGIN CTAB
M  V30 COUNTS 20 22 0 0 0
M  V30 BEGIN ATOM
M  V30 1 O 0.0 0.0 0.0 0
M  V30 2 C 1.2925 -0.7352 0.0 0
M  V30 3 C -1.3162 -0.7352 0.0 0
M  V30 4 N 2.5851 0.0237 0.0 0
M  V30 5 C 1.2807 -2.2293 0.0 0
M  V30 6 N -2.763 -0.2608 0.0 0
M  V30 7 C -1.3281 -2.2293 0.0 0
M  V30 8 C 2.5732 -2.9764 0.0 0
M  V30 9 C -0.0355 -2.9764 0.0 0 CFG=1
M  V30 10 N -3.6642 -1.4704 0.0 0
M  V30 11 C -2.7748 -2.68 0.0 0
M  V30 12 N 3.8658 -3.7235 0.0 0
M  V30 13 C -0.0474 -4.4706 0.0 0
M  V30 14 C -3.2492 -4.103 0.0 0
M  V30 15 C 1.2451 -5.2177 0.0 0
M  V30 16 C -1.3637 -5.2177 0.0 0
M  V30 17 C 1.2332 -6.7118 0.0 0
M  V30 18 C -1.3755 -6.7118 0.0 0
M  V30 19 C -0.083 -7.4471 0.0 0
M  V30 20 O -0.0948 -8.9412 0.0 0
M  V30 END ATOM
M  V30 BEGIN BOND
M  V30 1 1 1 2
M  V30 2 1 1 3
M  V30 3 1 2 4
M  V30 4 2 2 5
M  V30 5 1 3 6
M  V30 6 2 3 7
M  V30 7 1 5 8
M  V30 8 1 5 9
M  V30 9 1 6 10
M  V30 10 1 7 11
M  V30 11 3 8 12
M  V30 12 1 9 13 CFG=3
M  V30 13 1 11 14
M  V30 14 2 13 15
M  V30 15 1 13 16
M  V30 16 1 15 17
M  V30 17 2 16 18
M  V30 18 2 17 19
M  V30 19 1 19 20
M  V30 20 1 7 9
M  V30 21 2 10 11
M  V30 22 1 18 19
M  V30 END BOND
M  V30 BEGIN COLLECTION
M  V30 MDLV30/STERAC1 ATOMS=(1 9)
M  V30 END COLLECTION
M  V30 END CTAB
M  END
>  <Structure No>
372

>  <Catalog ID>
Z56790118

>  <MW (desalted)>
268.271

>  <ClogP>
2.237

>  <HBD>
3

>  <TPSA>
107.950

>  <RotBonds>
1

>  <Target>
Serine/threonine-protein kinase Chk1

>  <fromRegid>
CHEMBL1979318

>  <Similarity>
0.88

$$$$
Compound 373
Actelion Java MolfileCreator 2.0

  0  0  0  0  0  0              0 V3000
M  V30 BEGIN CTAB
M  V30 COUNTS 20 22 0 0 0
M  V30 BEGIN ATOM
M  V30 1 O 0.0 0.0 0.0 0
M  V30 2 C -0.0118 1.513 0.0 0
M  V30 3 N 1.2766 2.2814 0.0 0
M  V30 4 C -1.3239 2.2814 0.0 0
M  V30 5 C 2.5651 1.5367 0.0 0
M  V30 6 C -2.636 1.5367 0.0 0
M  V30 7 C -1.3357 3.7944 0.0 0
M  V30 8 C 3.8535 2.305 0.0 0
M  V30 9 C -3.9481 2.305 0.0 0
M  V30 10 C -2.6478 4.5628 0.0 0
M  V30 11 C 5.142 1.5603 0.0 0
M  V30 12 C -3.9599 3.8181 0.0 0
M  V30 13 C 5.2839 0.0827 0.0 0
M  V30 14 C 6.5014 2.1868 0.0 0
M  V30 15 C 6.7378 -0.2127 0.0 0
M  V30 16 C 4.2673 -1.0165 0.0 0
M  V30 17 N 7.4944 1.0875 0.0 0
M  V30 18 C 7.187 -1.6312 0.0 0
M  V30 19 C 4.7165 -2.435 0.0 0
M  V30 20 C 6.1704 -2.7306 0.0 0
M  V30 END ATOM
M  V30 BEGIN BOND
M  V30 1 2 1 2
M  V30 2 1 2 3
M  V30 3 1 2 4
M  V30 4 1 3 5
M  V30 5 2 4 6
M  V30 6 1 4 7
M  V30 7 1 5 8
M  V30 8 1 6 9
M  V30 9 2 7 10
M  V30 10 1 8 11
M  V30 11 2 9 12
M  V30 12 1 11 13
M  V30 13 2 11 14
M  V30 14 2 13 15
M  V30 15 1 13 16
M  V30 16 1 14 17
M  V30 17 1 15 18
M  V30 18 2 16 19
M  V30 19 2 18 20
M  V30 20 1 10 12
M  V30 21 1 15 17
M  V30 22 1 19 20
M  V30 END BOND
M  V30 END CTAB
M  END
>  <Structure No>
373

>  <Catalog ID>
Z26395492

>  <MW (desalted)>
264.322

>  <ClogP>
2.948

>  <HBD>
2

>  <TPSA>
44.890

>  <RotBonds>
4

>  <Target>
Poly [ADP-ribose] polymerase-1

>  <fromRegid>
CHEMBL343641

>  <Similarity>
0.92

$$$$
Compound 374
Actelion Java MolfileCreator 2.0

  0  0  0  0  0  0              0 V3000
M  V30 BEGIN CTAB
M  V30 COUNTS 20 22 0 0 0
M  V30 BEGIN ATOM
M  V30 1 O 0.0 0.0 0.0 0
M  V30 2 C -0.0117 1.506 0.0 0
M  V30 3 N -1.3178 2.2708 0.0 0
M  V30 4 C 1.2707 2.2708 0.0 0
M  V30 5 C -1.3295 3.7769 0.0 0
M  V30 6 C 1.2589 3.7769 0.0 0
M  V30 7 C 2.5532 1.5296 0.0 0
M  V30 8 C -2.6356 4.5299 0.0 0
M  V30 9 C -0.047 4.5299 0.0 0
M  V30 10 C 2.5414 4.5299 0.0 0
M  V30 11 C 3.8357 2.2944 0.0 0
M  V30 12 O -2.6473 6.036 0.0 0
M  V30 13 N -3.9416 3.8004 0.0 0
M  V30 14 C 3.824 3.8004 0.0 0
M  V30 15 C -5.2477 4.5535 0.0 0
M  V30 16 C -6.5537 3.824 0.0 0
M  V30 17 C -5.2594 6.0595 0.0 0
M  V30 18 C -7.8598 4.577 0.0 0
M  V30 19 C -6.5655 6.8126 0.0 0
M  V30 20 C -7.8715 6.0831 0.0 0
M  V30 END ATOM
M  V30 BEGIN BOND
M  V30 1 2 1 2
M  V30 2 1 2 3
M  V30 3 1 2 4
M  V30 4 1 3 5
M  V30 5 2 4 6
M  V30 6 1 4 7
M  V30 7 1 5 8
M  V30 8 2 5 9
M  V30 9 1 6 10
M  V30 10 2 7 11
M  V30 11 2 8 12
M  V30 12 1 8 13
M  V30 13 2 10 14
M  V30 14 1 13 15
M  V30 15 1 15 16
M  V30 16 1 15 17
M  V30 17 1 16 18
M  V30 18 1 17 19
M  V30 19 1 18 20
M  V30 20 1 6 9
M  V30 21 1 11 14
M  V30 22 1 19 20
M  V30 END BOND
M  V30 END CTAB
M  END
>  <Structure No>
374

>  <Catalog ID>
Z79410386

>  <MW (desalted)>
270.326

>  <ClogP>
2.146

>  <HBD>
2

>  <TPSA>
58.200

>  <RotBonds>
2

>  <Target>
parp10

>  <fromRegid>


>  <Similarity>


$$$$
Compound 375
Actelion Java MolfileCreator 2.0

  0  0  0  0  0  0              0 V3000
M  V30 BEGIN CTAB
M  V30 COUNTS 20 22 0 0 0
M  V30 BEGIN ATOM
M  V30 1 O 0.0 0.0 0.0 0
M  V30 2 C -1.0163 1.1227 0.0 0
M  V30 3 N -2.4936 0.8272 0.0 0
M  V30 4 C -0.5672 2.5645 0.0 0
M  V30 5 C -2.9663 -0.5909 0.0 0
M  V30 6 N -1.4654 3.7936 0.0 0
M  V30 7 C 0.8509 3.0373 0.0 0
M  V30 8 C -4.4436 -0.8863 0.0 0
M  V30 9 C -1.9736 -1.69 0.0 0
M  V30 10 N -0.5909 5.0227 0.0 0
M  V30 11 C 0.8391 4.55 0.0 0
M  V30 12 C 2.1391 2.2927 0.0 0
M  V30 13 C -4.9164 -2.3045 0.0 0
M  V30 14 C -2.4463 -3.1082 0.0 0
M  V30 15 C 2.1272 5.3182 0.0 0
M  V30 16 C 3.4273 3.0609 0.0 0
M  V30 17 C -3.9236 -3.4036 0.0 0
M  V30 18 C 3.4154 4.5736 0.0 0
M  V30 19 O -4.3964 -4.8218 0.0 0
M  V30 20 C -3.4036 -5.9209 0.0 0
M  V30 END ATOM
M  V30 BEGIN BOND
M  V30 1 2 1 2
M  V30 2 1 2 3
M  V30 3 1 2 4
M  V30 4 1 3 5
M  V30 5 2 4 6
M  V30 6 1 4 7
M  V30 7 2 5 8
M  V30 8 1 5 9
M  V30 9 1 6 10
M  V30 10 2 7 11
M  V30 11 1 7 12
M  V30 12 1 8 13
M  V30 13 2 9 14
M  V30 14 1 11 15
M  V30 15 2 12 16
M  V30 16 2 13 17
M  V30 17 2 15 18
M  V30 18 1 17 19
M  V30 19 1 19 20
M  V30 20 1 10 11
M  V30 21 1 14 17
M  V30 22 1 16 18
M  V30 END BOND
M  V30 END CTAB
M  END
>  <Structure No>
375

>  <Catalog ID>
Z31695416

>  <MW (desalted)>
267.283

>  <ClogP>
2.975

>  <HBD>
2

>  <TPSA>
67.010

>  <RotBonds>
3

>  <Target>
Serine/threonine-protein kinase Chk2

>  <fromRegid>
CHEMBL2007002

>  <Similarity>
0.87

$$$$
Compound 376
Actelion Java MolfileCreator 2.0

  0  0  0  0  0  0              0 V3000
M  V30 BEGIN CTAB
M  V30 COUNTS 27 30 0 0 0
M  V30 BEGIN ATOM
M  V30 1 O 0.0 0.0 0.0 0
M  V30 2 C -1.3051 0.7525 0.0 0
M  V30 3 N -1.3169 2.2575 0.0 0
M  V30 4 N -2.6102 0.0235 0.0 0
M  V30 5 C -2.622 3.01 0.0 0
M  V30 6 C -0.0352 3.01 0.0 0
M  V30 7 C -3.9154 0.776 0.0 0
M  V30 8 C -2.622 -1.458 0.0 0
M  V30 9 O -2.6338 4.5151 0.0 0
M  V30 10 C -3.9272 2.281 0.0 0
M  V30 11 N -5.3499 0.3292 0.0 0
M  V30 12 N -5.3616 2.7513 0.0 0
M  V30 13 C -6.2435 1.552 0.0 0
M  V30 14 C -7.7485 1.5638 0.0 0
M  V30 15 N -8.5011 2.8689 0.0 0
M  V30 16 C -10.0061 2.8807 0.0 0
M  V30 17 C -7.7721 4.1741 0.0 0
M  V30 18 C -10.7586 4.1858 0.0 0
M  V30 19 C -8.5246 5.4792 0.0 0
M  V30 20 N -10.0179 5.491 0.0 0
M  V30 21 C -10.7704 6.7961 0.0 0
M  V30 22 C -10.0296 8.1013 0.0 0
M  V30 23 C -10.7821 9.4064 0.0 0
M  V30 24 C -8.5481 8.113 0.0 0
M  V30 25 C -10.0414 10.7116 0.0 0
M  V30 26 C -7.8191 9.4182 0.0 0
M  V30 27 C -8.5598 10.7233 0.0 0
M  V30 END ATOM
M  V30 BEGIN BOND
M  V30 1 2 1 2
M  V30 2 1 2 3
M  V30 3 1 2 4
M  V30 4 1 3 5
M  V30 5 1 3 6
M  V30 6 1 4 7
M  V30 7 1 4 8
M  V30 8 2 5 9
M  V30 9 1 5 10
M  V30 10 1 7 11
M  V30 11 1 10 12
M  V30 12 2 11 13
M  V30 13 1 13 14
M  V30 14 1 14 15
M  V30 15 1 15 16
M  V30 16 1 15 17
M  V30 17 1 16 18
M  V30 18 1 17 19
M  V30 19 1 18 20
M  V30 20 1 20 21
M  V30 21 1 21 22
M  V30 22 2 22 23
M  V30 23 1 22 24
M  V30 24 1 23 25
M  V30 25 2 24 26
M  V30 26 2 25 27
M  V30 27 2 7 10
M  V30 28 1 12 13
M  V30 29 1 19 20
M  V30 30 1 26 27
M  V30 END BOND
M  V30 END CTAB
M  END
>  <Structure No>
376

>  <Catalog ID>
Z239083000

>  <MW (desalted)>
368.433

>  <ClogP>
1.996

>  <HBD>
1

>  <TPSA>
75.780

>  <RotBonds>
4

>  <Target>
Tankyrase1

>  <fromRegid>


>  <Similarity>


$$$$
Compound 377
Actelion Java MolfileCreator 2.0

  0  0  0  0  0  0              0 V3000
M  V30 BEGIN CTAB
M  V30 COUNTS 20 22 0 0 0
M  V30 BEGIN ATOM
M  V30 1 S 0.0 0.0 0.0 0
M  V30 2 C -1.4403 -0.4486 0.0 0
M  V30 3 C 0.8736 -1.2042 0.0 0
M  V30 4 N -2.7508 0.3069 0.0 0
M  V30 5 C -1.4521 -1.9362 0.0 0
M  V30 6 C -0.0236 -2.4084 0.0 0
M  V30 7 C 2.2904 -1.6528 0.0 0
M  V30 8 C -4.0613 -0.425 0.0 0
M  V30 9 C -2.7626 -2.68 0.0 0
M  V30 10 C 0.85 -3.6127 0.0 0
M  V30 11 C 2.2786 -3.1404 0.0 0
M  V30 12 N -4.0731 -1.9126 0.0 0
M  V30 13 C -5.3718 0.3305 0.0 0
M  V30 14 O -2.7744 -4.1676 0.0 0
M  V30 15 N -6.6823 -0.4014 0.0 0
M  V30 16 C -7.9928 0.3541 0.0 0
M  V30 17 C -6.6941 -1.8889 0.0 0
M  V30 18 C -9.3033 -0.3777 0.0 0
M  V30 19 C -10.6138 0.3777 0.0 0
M  V30 20 C -11.9243 -0.3541 0.0 0
M  V30 END ATOM
M  V30 BEGIN BOND
M  V30 1 1 1 2
M  V30 2 1 1 3
M  V30 3 1 2 4
M  V30 4 2 2 5
M  V30 5 2 3 6
M  V30 6 1 3 7
M  V30 7 2 4 8
M  V30 8 1 5 9
M  V30 9 1 6 10
M  V30 10 1 7 11
M  V30 11 1 8 12
M  V30 12 1 8 13
M  V30 13 2 9 14
M  V30 14 1 13 15
M  V30 15 1 15 16
M  V30 16 1 15 17
M  V30 17 1 16 18
M  V30 18 1 18 19
M  V30 19 1 19 20
M  V30 20 1 5 6
M  V30 21 1 9 12
M  V30 22 1 10 11
M  V30 END BOND
M  V30 END CTAB
M  END
>  <Structure No>
377

>  <Catalog ID>
Z44505227

>  <MW (desalted)>
291.412

>  <ClogP>
2.558

>  <HBD>
1

>  <TPSA>
44.700

>  <RotBonds>
5

>  <Target>
Poly [ADP-ribose] polymerase-1

>  <fromRegid>
CHEMBL3616846

>  <Similarity>
0.94

$$$$
Compound 378
Actelion Java MolfileCreator 2.0

  0  0  0  0  0  0              0 V3000
M  V30 BEGIN CTAB
M  V30 COUNTS 20 21 0 0 0
M  V30 BEGIN ATOM
M  V30 1 O 0.0 0.0 0.0 0
M  V30 2 C 1.2854 0.7547 0.0 0
M  V30 3 N 2.5709 0.0235 0.0 0
M  V30 4 C 1.2736 2.2643 0.0 0
M  V30 5 C 2.5591 -1.4623 0.0 0
M  V30 6 C -0.0353 3.019 0.0 0
M  V30 7 N 1.3326 -2.335 0.0 0
M  V30 8 C 3.762 -2.335 0.0 0
M  V30 9 C -0.0471 4.5286 0.0 0
M  V30 10 C -1.3444 2.2879 0.0 0
M  V30 11 N 1.7807 -3.7502 0.0 0
M  V30 12 C 3.2903 -3.7502 0.0 0
M  V30 13 C -1.3562 5.2952 0.0 0
M  V30 14 C -2.6534 3.0426 0.0 0
M  V30 15 C 4.163 -4.9531 0.0 0
M  V30 16 C -2.6652 4.5522 0.0 0
M  V30 17 C 5.0357 -6.1561 0.0 0
M  V30 18 C 2.9365 -5.8259 0.0 0
M  V30 19 C 5.3659 -4.0569 0.0 0
M  V30 20 C -3.9743 5.3187 0.0 0
M  V30 END ATOM
M  V30 BEGIN BOND
M  V30 1 2 1 2
M  V30 2 1 2 3
M  V30 3 1 2 4
M  V30 4 1 3 5
M  V30 5 1 4 6
M  V30 6 1 5 7
M  V30 7 2 5 8
M  V30 8 2 6 9
M  V30 9 1 6 10
M  V30 10 1 7 11
M  V30 11 1 8 12
M  V30 12 1 9 13
M  V30 13 2 10 14
M  V30 14 1 12 15
M  V30 15 2 13 16
M  V30 16 1 15 17
M  V30 17 1 15 18
M  V30 18 1 15 19
M  V30 19 1 16 20
M  V30 20 2 11 12
M  V30 21 1 14 16
M  V30 END BOND
M  V30 END CTAB
M  END
>  <Structure No>
378

>  <Catalog ID>
Z759006690

>  <MW (desalted)>
271.357

>  <ClogP>
3.675

>  <HBD>
2

>  <TPSA>
57.780

>  <RotBonds>
4

>  <Target>
Serine/threonine-protein kinase Chk1

>  <fromRegid>
CHEMBL115220

>  <Similarity>
0.86

$$$$
Compound 379
Actelion Java MolfileCreator 2.0

  0  0  0  0  0  0              0 V3000
M  V30 BEGIN CTAB
M  V30 COUNTS 21 21 0 0 0
M  V30 BEGIN ATOM
M  V30 1 Cl 0.0 0.0 0.0 0
M  V30 2 S 4.6462 0.8533 0.0 0
M  V30 3 O 6.1397 0.8652 0.0 0
M  V30 4 O 3.1291 0.8652 0.0 0
M  V30 5 N 4.6344 2.3705 0.0 0
M  V30 6 C 4.6344 -0.64 0.0 0
M  V30 7 C 5.9263 3.1291 0.0 0
M  V30 8 C 5.9263 -1.3867 0.0 0
M  V30 9 C 3.3187 -1.3867 0.0 0
M  V30 10 C 5.9145 4.6462 0.0 0
M  V30 11 C 5.9145 -2.8802 0.0 0
M  V30 12 C 7.2183 -0.6281 0.0 0
M  V30 13 C 3.3069 -2.8802 0.0 0
M  V30 14 N 4.3973 4.6581 0.0 0
M  V30 15 C 5.9026 6.1634 0.0 0
M  V30 16 C 7.4079 4.6581 0.0 0
M  V30 17 N 7.2064 -3.615 0.0 0
M  V30 18 C 4.5988 -3.615 0.0 0
M  V30 19 C 8.5102 -1.3749 0.0 0
M  V30 20 C 8.4984 -2.8565 0.0 0
M  V30 21 C 4.587 -5.1085 0.0 0
M  V30 END ATOM
M  V30 BEGIN BOND
M  V30 1 2 2 3
M  V30 2 2 2 4
M  V30 3 1 2 5
M  V30 4 1 2 6
M  V30 5 1 5 7
M  V30 6 1 6 8
M  V30 7 2 6 9
M  V30 8 1 7 10
M  V30 9 1 8 11
M  V30 10 2 8 12
M  V30 11 1 9 13
M  V30 12 1 10 14
M  V30 13 1 10 15
M  V30 14 1 10 16
M  V30 15 2 11 17
M  V30 16 1 11 18
M  V30 17 1 12 19
M  V30 18 1 17 20
M  V30 19 1 18 21
M  V30 20 2 13 18
M  V30 21 2 19 20
M  V30 END BOND
M  V30 END CTAB
M  END
>  <Structure No>
379

>  <Catalog ID>
Z1491333825

>  <MW (desalted)>
293.385

>  <ClogP>
2.320

>  <HBD>
2

>  <TPSA>
85.080

>  <RotBonds>
3

>  <Target>
CHK2

>  <fromRegid>


>  <Similarity>


$$$$
Compound 380
Actelion Java MolfileCreator 2.0

  0  0  0  0  0  0              0 V3000
M  V30 BEGIN CTAB
M  V30 COUNTS 20 22 0 0 0
M  V30 BEGIN ATOM
M  V30 1 O 0.0 0.0 0.0 0
M  V30 2 C 1.2914 -0.7464 0.0 0
M  V30 3 N 1.2796 -2.2393 0.0 0
M  V30 4 C 2.5829 0.0118 0.0 0 CFG=2
M  V30 5 C -0.0355 -2.9857 0.0 0
M  V30 6 C 2.571 1.5284 0.0 0
M  V30 7 C 3.8743 -0.7345 0.0 0
M  V30 8 C -0.0473 -4.4786 0.0 0
M  V30 9 O 3.8625 2.2867 0.0 0
M  V30 10 C 5.1658 0.0236 0.0 0
M  V30 11 C 1.244 -5.2132 0.0 0
M  V30 12 C -1.3625 -5.2132 0.0 0
M  V30 13 C 5.1539 1.5521 0.0 0
M  V30 14 C 6.4573 -0.7227 0.0 0
M  V30 15 C 1.2322 -6.7061 0.0 0
M  V30 16 C -1.3743 -6.7061 0.0 0
M  V30 17 C 6.4454 2.3104 0.0 0
M  V30 18 C 7.7487 0.0355 0.0 0
M  V30 19 N -0.0829 -7.4525 0.0 0
M  V30 20 C 7.7369 1.5758 0.0 0
M  V30 END ATOM
M  V30 BEGIN BOND
M  V30 1 2 1 2
M  V30 2 1 2 3
M  V30 3 1 4 2 CFG=3
M  V30 4 1 3 5
M  V30 5 1 4 6
M  V30 6 1 4 7
M  V30 7 1 5 8
M  V30 8 1 6 9
M  V30 9 1 7 10
M  V30 10 2 8 11
M  V30 11 1 8 12
M  V30 12 1 9 13
M  V30 13 1 10 14
M  V30 14 1 11 15
M  V30 15 1 12 16
M  V30 16 1 13 17
M  V30 17 2 14 18
M  V30 18 1 15 19
M  V30 19 2 17 20
M  V30 20 2 10 13
M  V30 21 1 16 19
M  V30 22 1 18 20
M  V30 END BOND
M  V30 BEGIN COLLECTION
M  V30 MDLV30/STERAC1 ATOMS=(1 4)
M  V30 END COLLECTION
M  V30 END CTAB
M  END
>  <Structure No>
380

>  <Catalog ID>
Z1742107738

>  <MW (desalted)>
272.342

>  <ClogP>
1.065

>  <HBD>
2

>  <TPSA>
50.360

>  <RotBonds>
3

>  <Target>
ATM

>  <fromRegid>


>  <Similarity>


$$$$
Compound 381
Actelion Java MolfileCreator 2.0

  0  0  0  0  0  0              0 V3000
M  V30 BEGIN CTAB
M  V30 COUNTS 20 22 0 0 0
M  V30 BEGIN ATOM
M  V30 1 O 0.0 0.0 0.0 0
M  V30 2 C -1.3102 -0.7318 0.0 0
M  V30 3 N -2.6204 0.0236 0.0 0
M  V30 4 C -1.322 -2.2191 0.0 0
M  V30 5 C -3.9306 -0.7082 0.0 0
M  V30 6 C -2.6322 -2.9627 0.0 0
M  V30 7 C -3.9424 -2.1955 0.0 0
M  V30 8 C -5.2408 0.0472 0.0 0
M  V30 9 C -5.2527 -2.9391 0.0 0
M  V30 10 C -6.5511 -0.6846 0.0 0
M  V30 11 C -6.5629 -2.1837 0.0 0
M  V30 12 C -7.8731 -2.9273 0.0 0
M  V30 13 O -9.1833 -2.1719 0.0 0
M  V30 14 N -7.8849 -4.4146 0.0 0
M  V30 15 C -9.1951 -5.1582 0.0 0
M  V30 16 C -6.5983 -5.1582 0.0 0
M  V30 17 C -9.2069 -6.6455 0.0 0 CFG=1
M  V30 18 C -6.6101 -6.6455 0.0 0
M  V30 19 O -7.9203 -7.3773 0.0 0
M  V30 20 C -10.5172 -7.3773 0.0 0
M  V30 END ATOM
M  V30 BEGIN BOND
M  V30 1 2 1 2
M  V30 2 1 2 3
M  V30 3 1 2 4
M  V30 4 1 3 5
M  V30 5 1 4 6
M  V30 6 2 5 7
M  V30 7 1 5 8
M  V30 8 1 7 9
M  V30 9 2 8 10
M  V30 10 2 9 11
M  V30 11 1 11 12
M  V30 12 2 12 13
M  V30 13 1 12 14
M  V30 14 1 14 15
M  V30 15 1 14 16
M  V30 16 1 15 17
M  V30 17 1 16 18
M  V30 18 1 17 19
M  V30 19 1 17 20 CFG=1
M  V30 20 1 6 7
M  V30 21 1 10 11
M  V30 22 1 18 19
M  V30 END BOND
M  V30 BEGIN COLLECTION
M  V30 MDLV30/STERAC1 ATOMS=(1 17)
M  V30 END COLLECTION
M  V30 END CTAB
M  END
>  <Structure No>
381

>  <Catalog ID>
Z212855030

>  <MW (desalted)>
274.315

>  <ClogP>
0.914

>  <HBD>
1

>  <TPSA>
58.640

>  <RotBonds>
1

>  <Target>
parp2

>  <fromRegid>


>  <Similarity>


$$$$
Compound 382
Actelion Java MolfileCreator 2.0

  0  0  0  0  0  0              0 V3000
M  V30 BEGIN CTAB
M  V30 COUNTS 20 22 0 0 0
M  V30 BEGIN ATOM
M  V30 1 O 0.0 0.0 0.0 0
M  V30 2 C -0.0118 1.513 0.0 0
M  V30 3 N 1.2766 2.2814 0.0 0
M  V30 4 C -1.3239 2.2814 0.0 0
M  V30 5 C 2.5651 1.5367 0.0 0
M  V30 6 C -1.3357 3.7944 0.0 0
M  V30 7 C -2.636 1.5367 0.0 0
M  V30 8 C 3.8535 2.305 0.0 0
M  V30 9 N -2.6478 4.5628 0.0 0
M  V30 10 C -3.9481 2.305 0.0 0
M  V30 11 C 5.142 1.5603 0.0 0
M  V30 12 C -3.9599 3.8181 0.0 0
M  V30 13 C 5.2839 0.0827 0.0 0
M  V30 14 C 6.5014 2.1868 0.0 0
M  V30 15 C 6.7378 -0.2127 0.0 0
M  V30 16 C 4.2673 -1.0165 0.0 0
M  V30 17 N 7.4944 1.0875 0.0 0
M  V30 18 C 7.187 -1.6312 0.0 0
M  V30 19 C 4.7165 -2.435 0.0 0
M  V30 20 C 6.1704 -2.7306 0.0 0
M  V30 END ATOM
M  V30 BEGIN BOND
M  V30 1 2 1 2
M  V30 2 1 2 3
M  V30 3 1 2 4
M  V30 4 1 3 5
M  V30 5 2 4 6
M  V30 6 1 4 7
M  V30 7 1 5 8
M  V30 8 1 6 9
M  V30 9 2 7 10
M  V30 10 1 8 11
M  V30 11 2 9 12
M  V30 12 1 11 13
M  V30 13 2 11 14
M  V30 14 2 13 15
M  V30 15 1 13 16
M  V30 16 1 14 17
M  V30 17 1 15 18
M  V30 18 2 16 19
M  V30 19 2 18 20
M  V30 20 1 10 12
M  V30 21 1 15 17
M  V30 22 1 19 20
M  V30 END BOND
M  V30 END CTAB
M  END
>  <Structure No>
382

>  <Catalog ID>
Z26395443

>  <MW (desalted)>
265.310

>  <ClogP>
2.195

>  <HBD>
2

>  <TPSA>
57.780

>  <RotBonds>
4

>  <Target>
Poly [ADP-ribose] polymerase-1

>  <fromRegid>
CHEMBL551127

>  <Similarity>
0.86

$$$$
Compound 383
Actelion Java MolfileCreator 2.0

  0  0  0  0  0  0              0 V3000
M  V30 BEGIN CTAB
M  V30 COUNTS 20 22 0 0 0
M  V30 BEGIN ATOM
M  V30 1 O 0.0 0.0 0.0 0
M  V30 2 C -0.0118 1.513 0.0 0
M  V30 3 N 1.2766 2.2814 0.0 0
M  V30 4 C -1.3239 2.2814 0.0 0
M  V30 5 C 2.5651 1.5367 0.0 0
M  V30 6 C -2.636 1.5367 0.0 0
M  V30 7 C -1.3357 3.7944 0.0 0
M  V30 8 C 3.8535 2.305 0.0 0
M  V30 9 C -3.9481 2.305 0.0 0
M  V30 10 C -2.6478 4.5628 0.0 0
M  V30 11 C 5.142 1.5603 0.0 0
M  V30 12 N -3.9599 3.8181 0.0 0
M  V30 13 C 5.2839 0.0827 0.0 0
M  V30 14 C 6.5014 2.1868 0.0 0
M  V30 15 C 6.7378 -0.2127 0.0 0
M  V30 16 C 4.2673 -1.0165 0.0 0
M  V30 17 N 7.4944 1.0875 0.0 0
M  V30 18 C 7.187 -1.6312 0.0 0
M  V30 19 C 4.7165 -2.435 0.0 0
M  V30 20 C 6.1704 -2.7306 0.0 0
M  V30 END ATOM
M  V30 BEGIN BOND
M  V30 1 2 1 2
M  V30 2 1 2 3
M  V30 3 1 2 4
M  V30 4 1 3 5
M  V30 5 2 4 6
M  V30 6 1 4 7
M  V30 7 1 5 8
M  V30 8 1 6 9
M  V30 9 2 7 10
M  V30 10 1 8 11
M  V30 11 2 9 12
M  V30 12 1 11 13
M  V30 13 2 11 14
M  V30 14 2 13 15
M  V30 15 1 13 16
M  V30 16 1 14 17
M  V30 17 1 15 18
M  V30 18 2 16 19
M  V30 19 2 18 20
M  V30 20 1 10 12
M  V30 21 1 15 17
M  V30 22 1 19 20
M  V30 END BOND
M  V30 END CTAB
M  END
>  <Structure No>
383

>  <Catalog ID>
Z26395434

>  <MW (desalted)>
265.310

>  <ClogP>
2.195

>  <HBD>
2

>  <TPSA>
57.780

>  <RotBonds>
4

>  <Target>
Poly [ADP-ribose] polymerase-1

>  <fromRegid>
CHEMBL343641

>  <Similarity>
0.91

$$$$
Compound 384
Actelion Java MolfileCreator 2.0

  0  0  0  0  0  0              0 V3000
M  V30 BEGIN CTAB
M  V30 COUNTS 21 23 0 0 0
M  V30 BEGIN ATOM
M  V30 1 Cl 0.0 0.0 0.0 0
M  V30 2 O 11.1263 -1.6029 0.0 0
M  V30 3 C 10.1127 -0.4832 0.0 0
M  V30 4 N 8.6394 -0.7779 0.0 0
M  V30 5 C 10.5606 0.9546 0.0 0
M  V30 6 C 8.0147 -2.1333 0.0 0
M  V30 7 C 7.5197 0.2357 0.0 0
M  V30 8 C 11.9749 1.4261 0.0 0
M  V30 9 C 9.6648 2.1804 0.0 0
M  V30 10 C 6.5178 -1.9683 0.0 0
M  V30 11 C 6.2114 -0.495 0.0 0
M  V30 12 C 11.9631 2.9348 0.0 0
M  V30 13 C 13.2596 0.6953 0.0 0
M  V30 14 O 10.537 3.4062 0.0 0
M  V30 15 C 5.2095 -2.7108 0.0 0
M  V30 16 C 4.7145 -0.33 0.0 0
M  V30 17 C 13.2479 3.6891 0.0 0
M  V30 18 C 14.5444 1.4497 0.0 0
M  V30 19 N 5.0445 -4.1841 0.0 0
M  V30 20 C 4.0898 -1.6972 0.0 0
M  V30 21 C 14.5326 2.9465 0.0 0
M  V30 END ATOM
M  V30 BEGIN BOND
M  V30 1 2 2 3
M  V30 2 1 3 4
M  V30 3 1 3 5
M  V30 4 1 4 6
M  V30 5 1 4 7
M  V30 6 1 5 8
M  V30 7 2 5 9
M  V30 8 1 6 10
M  V30 9 1 7 11
M  V30 10 2 8 12
M  V30 11 1 8 13
M  V30 12 1 9 14
M  V30 13 1 10 15
M  V30 14 1 11 16
M  V30 15 1 12 17
M  V30 16 2 13 18
M  V30 17 1 15 19
M  V30 18 1 15 20
M  V30 19 2 17 21
M  V30 20 1 10 11
M  V30 21 1 12 14
M  V30 22 1 16 20
M  V30 23 1 18 21
M  V30 END BOND
M  V30 END CTAB
M  END
>  <Structure No>
384

>  <Catalog ID>
Z1672911866

>  <MW (desalted)>
270.326

>  <ClogP>
1.341

>  <HBD>
1

>  <TPSA>
59.470

>  <RotBonds>
1

>  <Target>
CHK2

>  <fromRegid>


>  <Similarity>


$$$$
Compound 385
Actelion Java MolfileCreator 2.0

  0  0  0  0  0  0              0 V3000
M  V30 BEGIN CTAB
M  V30 COUNTS 21 24 0 0 0
M  V30 BEGIN ATOM
M  V30 1 S 0.0 0.0 0.0 0
M  V30 2 C -1.2298 -0.8701 0.0 0
M  V30 3 C 1.2065 -0.8701 0.0 0
M  V30 4 N -2.7148 -0.5452 0.0 0
M  V30 5 C -0.7773 -2.2855 0.0 0
M  V30 6 C 0.7309 -2.2855 0.0 0
M  V30 7 C 2.6684 -0.5452 0.0 0
M  V30 8 C -3.7358 -1.6474 0.0 0
M  V30 9 C -1.7982 -3.3877 0.0 0
M  V30 10 C 1.7286 -3.3877 0.0 0
M  V30 11 C 3.6662 -1.6474 0.0 0
M  V30 12 N -3.2833 -3.0629 0.0 0
M  V30 13 C -5.2208 -1.3226 0.0 0
M  V30 14 O -1.3458 -4.8031 0.0 0
M  V30 15 C 3.1905 -3.0629 0.0 0
M  V30 16 N -6.2418 -2.4247 0.0 0
M  V30 17 C -5.7893 -3.8402 0.0 0
M  V30 18 C -7.7268 -2.0999 0.0 0
M  V30 19 C -6.8103 -4.9424 0.0 0
M  V30 20 C -8.7478 -3.2021 0.0 0
M  V30 21 O -8.2953 -4.6175 0.0 0
M  V30 END ATOM
M  V30 BEGIN BOND
M  V30 1 1 1 2
M  V30 2 1 1 3
M  V30 3 1 2 4
M  V30 4 2 2 5
M  V30 5 2 3 6
M  V30 6 1 3 7
M  V30 7 2 4 8
M  V30 8 1 5 9
M  V30 9 1 6 10
M  V30 10 1 7 11
M  V30 11 1 8 12
M  V30 12 1 8 13
M  V30 13 2 9 14
M  V30 14 1 10 15
M  V30 15 1 13 16
M  V30 16 1 16 17
M  V30 17 1 16 18
M  V30 18 1 17 19
M  V30 19 1 18 20
M  V30 20 1 19 21
M  V30 21 1 5 6
M  V30 22 1 9 12
M  V30 23 1 11 15
M  V30 24 1 20 21
M  V30 END BOND
M  V30 END CTAB
M  END
>  <Structure No>
385

>  <Catalog ID>
Z44499000

>  <MW (desalted)>
305.395

>  <ClogP>
1.443

>  <HBD>
1

>  <TPSA>
53.930

>  <RotBonds>
2

>  <Target>
Poly [ADP-ribose] polymerase-1

>  <fromRegid>
CHEMBL3616846

>  <Similarity>
0.88

$$$$
Compound 386
Actelion Java MolfileCreator 2.0

  0  0  0  0  0  0              0 V3000
M  V30 BEGIN CTAB
M  V30 COUNTS 21 24 0 0 0
M  V30 BEGIN ATOM
M  V30 1 S 0.0 0.0 0.0 0
M  V30 2 C -1.2399 -0.8502 0.0 0
M  V30 3 C 1.1809 -0.8975 0.0 0
M  V30 4 N -2.7161 -0.4959 0.0 0
M  V30 5 C -0.8148 -2.2791 0.0 0
M  V30 6 C 0.6731 -2.3028 0.0 0
M  V30 7 C 2.6688 -0.9211 0.0 0
M  V30 8 C -3.7553 -1.5824 0.0 0
M  V30 9 C -1.854 -3.3656 0.0 0
M  V30 10 C 1.854 -3.2003 0.0 0
M  V30 11 C 3.094 -2.35 0.0 0
M  V30 12 N -3.3302 -3.0113 0.0 0
M  V30 13 C -5.2314 -1.2281 0.0 0
M  V30 14 O -1.4289 -4.7945 0.0 0
M  V30 15 N -6.2707 -2.3146 0.0 0
M  V30 16 C -7.7468 -1.9603 0.0 0
M  V30 17 C -5.8455 -3.7435 0.0 0
M  V30 18 C -8.786 -3.0467 0.0 0
M  V30 19 C -6.8847 -4.8299 0.0 0
M  V30 20 C -8.3609 -4.4757 0.0 0
M  V30 21 C -9.4001 -5.5621 0.0 0
M  V30 END ATOM
M  V30 BEGIN BOND
M  V30 1 1 1 2
M  V30 2 1 1 3
M  V30 3 1 2 4
M  V30 4 2 2 5
M  V30 5 2 3 6
M  V30 6 1 3 7
M  V30 7 2 4 8
M  V30 8 1 5 9
M  V30 9 1 6 10
M  V30 10 1 7 11
M  V30 11 1 8 12
M  V30 12 1 8 13
M  V30 13 2 9 14
M  V30 14 1 13 15
M  V30 15 1 15 16
M  V30 16 1 15 17
M  V30 17 1 16 18
M  V30 18 1 17 19
M  V30 19 1 18 20
M  V30 20 1 20 21
M  V30 21 1 5 6
M  V30 22 1 9 12
M  V30 23 1 10 11
M  V30 24 1 19 20
M  V30 END BOND
M  V30 END CTAB
M  END
>  <Structure No>
386

>  <Catalog ID>
Z44525557

>  <MW (desalted)>
303.422

>  <ClogP>
2.683

>  <HBD>
1

>  <TPSA>
44.700

>  <RotBonds>
2

>  <Target>
Poly [ADP-ribose] polymerase-1

>  <fromRegid>
CHEMBL3616846

>  <Similarity>
0.92

$$$$
Compound 387
Actelion Java MolfileCreator 2.0

  0  0  0  0  0  0              0 V3000
M  V30 BEGIN CTAB
M  V30 COUNTS 21 23 0 0 0
M  V30 BEGIN ATOM
M  V30 1 O 0.0 0.0 0.0 0
M  V30 2 C -0.0117 1.5063 0.0 0
M  V30 3 C 1.271 2.2713 0.0 0
M  V30 4 C -1.318 2.2713 0.0 0
M  V30 5 C 1.2592 3.7777 0.0 0
M  V30 6 C 2.5537 1.5299 0.0 0
M  V30 7 C -1.3298 3.7777 0.0 0
M  V30 8 C -2.6243 1.5299 0.0 0
M  V30 9 O -0.047 4.5309 0.0 0
M  V30 10 C 2.542 4.5309 0.0 0
M  V30 11 C 3.8365 2.2948 0.0 0
M  V30 12 C -2.6361 4.5309 0.0 0
M  V30 13 C 2.5302 6.0372 0.0 0
M  V30 14 C 3.8247 3.8012 0.0 0
M  V30 15 C -3.9424 3.8012 0.0 0
M  V30 16 C -2.6479 6.0372 0.0 0
M  V30 17 O 3.813 6.7904 0.0 0
M  V30 18 O 1.2239 6.7904 0.0 0
M  V30 19 C -5.2487 4.5544 0.0 0
M  V30 20 C -3.9542 6.7904 0.0 0
M  V30 21 C -5.2605 6.0608 0.0 0
M  V30 END ATOM
M  V30 BEGIN BOND
M  V30 1 2 1 2
M  V30 2 1 2 3
M  V30 3 1 2 4
M  V30 4 2 3 5
M  V30 5 1 3 6
M  V30 6 2 4 7
M  V30 7 1 4 8
M  V30 8 1 5 9
M  V30 9 1 5 10
M  V30 10 2 6 11
M  V30 11 1 7 12
M  V30 12 1 10 13
M  V30 13 2 10 14
M  V30 14 2 12 15
M  V30 15 1 12 16
M  V30 16 2 13 17
M  V30 17 1 13 18
M  V30 18 1 15 19
M  V30 19 2 16 20
M  V30 20 2 19 21
M  V30 21 1 7 9
M  V30 22 1 11 14
M  V30 23 1 20 21
M  V30 END BOND
M  V30 END CTAB
M  END
>  <Structure No>
387

>  <Catalog ID>
Z56899057

>  <MW (desalted)>
280.275

>  <ClogP>
3.553

>  <HBD>
1

>  <TPSA>
63.600

>  <RotBonds>
2

>  <Target>
Tankyrase-1

>  <fromRegid>
CHEMBL2431806

>  <Similarity>
0.88

$$$$
Compound 388
Actelion Java MolfileCreator 2.0

  0  0  0  0  0  0              0 V3000
M  V30 BEGIN CTAB
M  V30 COUNTS 21 22 0 0 0
M  V30 BEGIN ATOM
M  V30 1 F 0.0 0.0 0.0 0
M  V30 2 C 1.2946 0.772 0.0 0
M  V30 3 C 1.2827 2.2923 0.0 0
M  V30 4 C 2.5892 0.0237 0.0 0
M  V30 5 C 2.5773 3.0524 0.0 0
M  V30 6 C 3.8838 0.7957 0.0 0
M  V30 7 C 3.8719 2.3041 0.0 0
M  V30 8 N 5.1666 3.0643 0.0 0
M  V30 9 C 6.4612 2.316 0.0 0
M  V30 10 O 6.4493 0.8195 0.0 0
M  V30 11 C 7.7558 3.0762 0.0 0
M  V30 12 C 9.0504 2.3279 0.0 0
M  V30 13 O 9.0385 0.8314 0.0 0
M  V30 14 N 10.345 3.088 0.0 0
M  V30 15 C 11.6397 2.3398 0.0 0
M  V30 16 C 12.9343 3.0999 0.0 0
M  V30 17 C 11.6278 0.8432 0.0 0
M  V30 18 C 14.2289 2.3516 0.0 0
M  V30 19 C 12.9224 0.095 0.0 0
M  V30 20 C 14.217 0.8551 0.0 0
M  V30 21 F 15.5117 0.1068 0.0 0
M  V30 END ATOM
M  V30 BEGIN BOND
M  V30 1 1 1 2
M  V30 2 2 2 3
M  V30 3 1 2 4
M  V30 4 1 3 5
M  V30 5 2 4 6
M  V30 6 2 5 7
M  V30 7 1 7 8
M  V30 8 1 8 9
M  V30 9 2 9 10
M  V30 10 1 9 11
M  V30 11 1 11 12
M  V30 12 2 12 13
M  V30 13 1 12 14
M  V30 14 1 14 15
M  V30 15 2 15 16
M  V30 16 1 15 17
M  V30 17 1 16 18
M  V30 18 2 17 19
M  V30 19 2 18 20
M  V30 20 1 20 21
M  V30 21 1 6 7
M  V30 22 1 19 20
M  V30 END BOND
M  V30 END CTAB
M  END
>  <Structure No>
388

>  <Catalog ID>
Z56887790

>  <MW (desalted)>
290.265

>  <ClogP>
2.867

>  <HBD>
2

>  <TPSA>
58.200

>  <RotBonds>
4

>  <Target>
ATM

>  <fromRegid>


>  <Similarity>


$$$$
Compound 389
Actelion Java MolfileCreator 2.0

  0  0  0  0  0  0              0 V3000
M  V30 BEGIN CTAB
M  V30 COUNTS 22 23 0 0 0
M  V30 BEGIN ATOM
M  V30 1 Cl 0.0 0.0 0.0 0
M  V30 2 O 4.166 0.0946 0.0 0
M  V30 3 C 5.4561 0.8521 0.0 0
M  V30 4 N 6.7462 0.1183 0.0 0
M  V30 5 C 5.4443 2.3671 0.0 0 CFG=2
M  V30 6 C 6.7344 -1.3729 0.0 0
M  V30 7 C 6.7344 3.1245 0.0 0
M  V30 8 C 4.1305 3.1245 0.0 0
M  V30 9 C 8.0244 -2.1067 0.0 0
M  V30 10 C 5.4206 -2.1067 0.0 0
M  V30 11 N 6.7225 4.6395 0.0 0
M  V30 12 C 4.1187 4.6395 0.0 0
M  V30 13 C 9.3145 -1.3492 0.0 0
M  V30 14 C 8.0126 -3.5979 0.0 0
M  V30 15 C 5.4088 -3.5979 0.0 0
M  V30 16 C 5.4088 5.3969 0.0 0
M  V30 17 C 9.3027 0.1656 0.0 0
M  V30 18 C 10.6046 -2.083 0.0 0
M  V30 19 C 6.6988 -4.3436 0.0 0
M  V30 20 C 10.5927 0.9231 0.0 0
M  V30 21 C 11.8946 -1.3255 0.0 0
M  V30 22 C 11.8828 0.1893 0.0 0
M  V30 END ATOM
M  V30 BEGIN BOND
M  V30 1 2 2 3
M  V30 2 1 3 4
M  V30 3 1 5 3 CFG=1
M  V30 4 1 4 6
M  V30 5 1 5 7
M  V30 6 1 5 8
M  V30 7 2 6 9
M  V30 8 1 6 10
M  V30 9 1 7 11
M  V30 10 1 8 12
M  V30 11 1 9 13
M  V30 12 1 9 14
M  V30 13 2 10 15
M  V30 14 1 11 16
M  V30 15 2 13 17
M  V30 16 1 13 18
M  V30 17 2 14 19
M  V30 18 1 17 20
M  V30 19 2 18 21
M  V30 20 2 20 22
M  V30 21 1 12 16
M  V30 22 1 15 19
M  V30 23 1 21 22
M  V30 END BOND
M  V30 BEGIN COLLECTION
M  V30 MDLV30/STERAC1 ATOMS=(1 5)
M  V30 END COLLECTION
M  V30 END CTAB
M  END
>  <Structure No>
389

>  <Catalog ID>
Z1449770524

>  <MW (desalted)>
280.364

>  <ClogP>
2.385

>  <HBD>
2

>  <TPSA>
41.130

>  <RotBonds>
3

>  <Target>
ATM

>  <fromRegid>


>  <Similarity>


$$$$
Compound 390
Actelion Java MolfileCreator 2.0

  0  0  0  0  0  0              0 V3000
M  V30 BEGIN CTAB
M  V30 COUNTS 22 22 0 0 0
M  V30 BEGIN ATOM
M  V30 1 Cl 0.0 0.0 0.0 0
M  V30 2 S 11.8348 -1.221 0.0 0
M  V30 3 C 11.3652 -2.6299 0.0 0
M  V30 4 C 10.6138 -0.3287 0.0 0
M  V30 5 O 12.234 -3.8275 0.0 0
M  V30 6 N 9.8624 -2.6182 0.0 0
M  V30 7 C 9.3927 -1.1975 0.0 0
M  V30 8 C 10.602 1.174 0.0 0
M  V30 9 C 8.97 -3.8158 0.0 0
M  V30 10 O 7.9603 -0.7279 0.0 0
M  V30 11 C 9.2988 1.9372 0.0 0
M  V30 12 C 7.4789 -3.6514 0.0 0
M  V30 13 C 7.9955 1.1975 0.0 0
M  V30 14 C 9.2871 3.4401 0.0 0
M  V30 15 N 6.5866 -4.849 0.0 0
M  V30 16 C 6.6923 1.9607 0.0 0
M  V30 17 C 7.9838 4.1915 0.0 0
M  V30 18 O 5.3891 1.221 0.0 0
M  V30 19 C 6.6806 3.4635 0.0 0
M  V30 20 C 4.0858 1.9842 0.0 0
M  V30 21 O 5.3773 4.215 0.0 0
M  V30 22 C 4.0741 3.487 0.0 0
M  V30 END ATOM
M  V30 BEGIN BOND
M  V30 1 1 2 3
M  V30 2 1 2 4
M  V30 3 2 3 5
M  V30 4 1 3 6
M  V30 5 1 4 7
M  V30 6 2 4 8 CFG=2
M  V30 7 1 6 9
M  V30 8 2 7 10
M  V30 9 1 8 11
M  V30 10 1 9 12
M  V30 11 2 11 13
M  V30 12 1 11 14
M  V30 13 1 12 15
M  V30 14 1 13 16
M  V30 15 2 14 17
M  V30 16 1 16 18
M  V30 17 2 16 19
M  V30 18 1 18 20
M  V30 19 1 19 21
M  V30 20 1 21 22
M  V30 21 1 6 7
M  V30 22 1 17 19
M  V30 END BOND
M  V30 END CTAB
M  END
>  <Structure No>
390

>  <Catalog ID>
Z56855141

>  <MW (desalted)>
308.353

>  <ClogP>
1.558

>  <HBD>
1

>  <TPSA>
81.860

>  <RotBonds>
5

>  <Target>
Serine/threonine-protein kinase Chk2

>  <fromRegid>
CHEMBL2003286

>  <Similarity>
0.86

$$$$
Compound 391
Actelion Java MolfileCreator 2.0

  0  0  0  0  0  0              0 V3000
M  V30 BEGIN CTAB
M  V30 COUNTS 21 23 0 0 0
M  V30 BEGIN ATOM
M  V30 1 Cl 0.0 0.0 0.0 0
M  V30 2 C -1.3011 0.7619 0.0 0
M  V30 3 C -1.3128 2.2623 0.0 0
M  V30 4 C -2.6023 0.0234 0.0 0
M  V30 5 C -2.614 3.0243 0.0 0
M  V30 6 C -3.9034 0.7853 0.0 0
M  V30 7 C -3.9151 2.2858 0.0 0
M  V30 8 C -5.2163 3.0477 0.0 0
M  V30 9 N -6.5175 2.3092 0.0 0
M  V30 10 N -5.228 4.5481 0.0 0
M  V30 11 C -7.8186 3.0712 0.0 0
M  V30 12 C -6.5292 5.2984 0.0 0
M  V30 13 C -7.8303 4.5716 0.0 0
M  V30 14 C -9.1198 2.3327 0.0 0
M  V30 15 O -6.5409 6.7988 0.0 0
M  V30 16 C -9.1315 5.3218 0.0 0
M  V30 17 C -10.4209 3.0946 0.0 0
M  V30 18 C -10.4327 4.595 0.0 0
M  V30 19 C -11.7221 2.3561 0.0 0
M  V30 20 O -11.7338 0.8791 0.0 0
M  V30 21 O -13.0232 3.118 0.0 0
M  V30 END ATOM
M  V30 BEGIN BOND
M  V30 1 1 1 2
M  V30 2 2 2 3
M  V30 3 1 2 4
M  V30 4 1 3 5
M  V30 5 2 4 6
M  V30 6 2 5 7
M  V30 7 1 7 8
M  V30 8 2 8 9
M  V30 9 1 8 10
M  V30 10 1 9 11
M  V30 11 1 10 12
M  V30 12 2 11 13
M  V30 13 1 11 14
M  V30 14 2 12 15
M  V30 15 1 13 16
M  V30 16 2 14 17
M  V30 17 2 16 18
M  V30 18 1 17 19
M  V30 19 2 19 20
M  V30 20 1 19 21
M  V30 21 1 6 7
M  V30 22 1 12 13
M  V30 23 1 17 18
M  V30 END BOND
M  V30 END CTAB
M  END
>  <Structure No>
391

>  <Catalog ID>
Z364012620

>  <MW (desalted)>
300.697

>  <ClogP>
3.213

>  <HBD>
2

>  <TPSA>
78.760

>  <RotBonds>
2

>  <Target>
Poly [ADP-ribose] polymerase-1

>  <fromRegid>
CHEMBL1163173

>  <Similarity>
0.88

$$$$
Compound 392
Actelion Java MolfileCreator 2.0

  0  0  0  0  0  0              0 V3000
M  V30 BEGIN CTAB
M  V30 COUNTS 21 23 0 0 0
M  V30 BEGIN ATOM
M  V30 1 Br 0.0 0.0 0.0 0
M  V30 2 C -1.3011 0.7619 0.0 0
M  V30 3 C -1.3128 2.2623 0.0 0
M  V30 4 C -2.6023 0.0234 0.0 0
M  V30 5 C -2.614 3.0243 0.0 0
M  V30 6 C -3.9034 0.7853 0.0 0
M  V30 7 C -3.9151 2.2858 0.0 0
M  V30 8 C -5.2163 3.0477 0.0 0
M  V30 9 N -6.5175 2.3092 0.0 0
M  V30 10 N -5.228 4.5481 0.0 0
M  V30 11 C -7.8186 3.0712 0.0 0
M  V30 12 C -6.5292 5.2984 0.0 0
M  V30 13 C -7.8303 4.5716 0.0 0
M  V30 14 C -9.1198 2.3327 0.0 0
M  V30 15 O -6.5409 6.7988 0.0 0
M  V30 16 C -9.1315 5.3218 0.0 0
M  V30 17 C -10.4209 3.0946 0.0 0
M  V30 18 C -10.4327 4.595 0.0 0
M  V30 19 C -11.7221 2.3561 0.0 0
M  V30 20 O -11.7338 0.8791 0.0 0
M  V30 21 O -13.0232 3.118 0.0 0
M  V30 END ATOM
M  V30 BEGIN BOND
M  V30 1 1 1 2
M  V30 2 2 2 3
M  V30 3 1 2 4
M  V30 4 1 3 5
M  V30 5 2 4 6
M  V30 6 2 5 7
M  V30 7 1 7 8
M  V30 8 2 8 9
M  V30 9 1 8 10
M  V30 10 1 9 11
M  V30 11 1 10 12
M  V30 12 2 11 13
M  V30 13 1 11 14
M  V30 14 2 12 15
M  V30 15 1 13 16
M  V30 16 2 14 17
M  V30 17 2 16 18
M  V30 18 1 17 19
M  V30 19 2 19 20
M  V30 20 1 19 21
M  V30 21 1 6 7
M  V30 22 1 12 13
M  V30 23 1 17 18
M  V30 END BOND
M  V30 END CTAB
M  END
>  <Structure No>
392

>  <Catalog ID>
Z364012662

>  <MW (desalted)>
345.148

>  <ClogP>
3.363

>  <HBD>
2

>  <TPSA>
78.760

>  <RotBonds>
2

>  <Target>
Poly [ADP-ribose] polymerase-1

>  <fromRegid>
CHEMBL2058057

>  <Similarity>
0.87

$$$$
Compound 393
Actelion Java MolfileCreator 2.0

  0  0  0  0  0  0              0 V3000
M  V30 BEGIN CTAB
M  V30 COUNTS 21 24 0 0 0
M  V30 BEGIN ATOM
M  V30 1 S 0.0 0.0 0.0 0
M  V30 2 C -1.2298 -0.8701 0.0 0
M  V30 3 C 1.2065 -0.8701 0.0 0
M  V30 4 N -2.7148 -0.5452 0.0 0
M  V30 5 C -0.7773 -2.2855 0.0 0
M  V30 6 C 0.7309 -2.2855 0.0 0
M  V30 7 C 2.6684 -0.5452 0.0 0
M  V30 8 C -3.7358 -1.6474 0.0 0
M  V30 9 C -1.7982 -3.3877 0.0 0
M  V30 10 C 1.7286 -3.3877 0.0 0
M  V30 11 C 3.6662 -1.6474 0.0 0
M  V30 12 N -3.2833 -3.0629 0.0 0
M  V30 13 C -5.2208 -1.3226 0.0 0
M  V30 14 O -1.3458 -4.8031 0.0 0
M  V30 15 C 3.1905 -3.0629 0.0 0
M  V30 16 N -6.2418 -2.4247 0.0 0
M  V30 17 C -5.7893 -3.8402 0.0 0
M  V30 18 C -7.7268 -2.0999 0.0 0
M  V30 19 C -6.8103 -4.9424 0.0 0
M  V30 20 C -8.7478 -3.2021 0.0 0
M  V30 21 N -8.2953 -4.6175 0.0 0
M  V30 END ATOM
M  V30 BEGIN BOND
M  V30 1 1 1 2
M  V30 2 1 1 3
M  V30 3 1 2 4
M  V30 4 2 2 5
M  V30 5 2 3 6
M  V30 6 1 3 7
M  V30 7 2 4 8
M  V30 8 1 5 9
M  V30 9 1 6 10
M  V30 10 1 7 11
M  V30 11 1 8 12
M  V30 12 1 8 13
M  V30 13 2 9 14
M  V30 14 1 10 15
M  V30 15 1 13 16
M  V30 16 1 16 17
M  V30 17 1 16 18
M  V30 18 1 17 19
M  V30 19 1 18 20
M  V30 20 1 19 21
M  V30 21 1 5 6
M  V30 22 1 9 12
M  V30 23 1 11 15
M  V30 24 1 20 21
M  V30 END BOND
M  V30 END CTAB
M  END
>  <Structure No>
393

>  <Catalog ID>
Z57931108

>  <MW (desalted)>
304.411

>  <ClogP>
1.429

>  <HBD>
2

>  <TPSA>
56.730

>  <RotBonds>
2

>  <Target>
Poly [ADP-ribose] polymerase-1

>  <fromRegid>
CHEMBL3616846

>  <Similarity>
0.92

$$$$
Compound 394
Actelion Java MolfileCreator 2.0

  0  0  0  0  0  0              0 V3000
M  V30 BEGIN CTAB
M  V30 COUNTS 21 22 0 0 0
M  V30 BEGIN ATOM
M  V30 1 Cl 0.0 0.0 0.0 0
M  V30 2 C -1.3014 0.7503 0.0 0
M  V30 3 C -1.3131 2.251 0.0 0
M  V30 4 C -2.6028 0.0234 0.0 0
M  V30 5 C -2.6145 3.0131 0.0 0
M  V30 6 C -3.9042 0.7738 0.0 0
M  V30 7 C -3.9159 2.2745 0.0 0
M  V30 8 O -5.2173 3.0366 0.0 0
M  V30 9 C -6.5187 2.2979 0.0 0
M  V30 10 C -7.8201 3.06 0.0 0
M  V30 11 O -7.8319 4.5607 0.0 0
M  V30 12 N -9.1215 2.3214 0.0 0
M  V30 13 C -10.4229 3.0835 0.0 0
M  V30 14 C -11.7244 2.3448 0.0 0
M  V30 15 C -10.4347 4.5842 0.0 0
M  V30 16 C -13.0258 3.1069 0.0 0
M  V30 17 C -11.7361 5.3346 0.0 0
M  V30 18 C -14.3272 2.3683 0.0 0
M  V30 19 C -13.0375 4.6076 0.0 0
M  V30 20 O -14.3389 0.891 0.0 0
M  V30 21 C -15.6286 3.1304 0.0 0
M  V30 END ATOM
M  V30 BEGIN BOND
M  V30 1 1 1 2
M  V30 2 2 2 3
M  V30 3 1 2 4
M  V30 4 1 3 5
M  V30 5 2 4 6
M  V30 6 2 5 7
M  V30 7 1 7 8
M  V30 8 1 8 9
M  V30 9 1 9 10
M  V30 10 2 10 11
M  V30 11 1 10 12
M  V30 12 1 12 13
M  V30 13 2 13 14
M  V30 14 1 13 15
M  V30 15 1 14 16
M  V30 16 2 15 17
M  V30 17 1 16 18
M  V30 18 2 16 19
M  V30 19 2 18 20
M  V30 20 1 18 21
M  V30 21 1 6 7
M  V30 22 1 17 19
M  V30 END BOND
M  V30 END CTAB
M  END
>  <Structure No>
394

>  <Catalog ID>
Z19727554

>  <MW (desalted)>
303.740

>  <ClogP>
3.439

>  <HBD>
1

>  <TPSA>
55.400

>  <RotBonds>
5

>  <Target>
parp14

>  <fromRegid>


>  <Similarity>


$$$$
Compound 395
Actelion Java MolfileCreator 2.0

  0  0  0  0  0  0              0 V3000
M  V30 BEGIN CTAB
M  V30 COUNTS 21 23 0 0 0
M  V30 BEGIN ATOM
M  V30 1 F 0.0 0.0 0.0 0
M  V30 2 C 1.2925 0.7707 0.0 0
M  V30 3 C 1.2806 2.2886 0.0 0
M  V30 4 C 2.585 0.0237 0.0 0
M  V30 5 C 2.5732 3.0594 0.0 0
M  V30 6 C 3.8776 0.7944 0.0 0
M  V30 7 C 3.8657 2.3123 0.0 0
M  V30 8 C 5.1583 3.0831 0.0 0
M  V30 9 N 6.4508 2.336 0.0 0
M  V30 10 C 7.7433 3.1068 0.0 0
M  V30 11 C 9.0359 2.3597 0.0 0
M  V30 12 N 10.3284 3.1305 0.0 0
M  V30 13 N 9.024 0.8656 0.0 0
M  V30 14 C 11.621 2.3834 0.0 0
M  V30 15 C 10.3166 0.1185 0.0 0
M  V30 16 C 11.6091 0.8893 0.0 0
M  V30 17 C 12.9135 3.1542 0.0 0
M  V30 18 O 10.3047 -1.3755 0.0 0
M  V30 19 C 12.9017 0.1422 0.0 0
M  V30 20 C 14.2061 2.4072 0.0 0
M  V30 21 C 14.1942 0.913 0.0 0
M  V30 END ATOM
M  V30 BEGIN BOND
M  V30 1 1 1 2
M  V30 2 2 2 3
M  V30 3 1 2 4
M  V30 4 1 3 5
M  V30 5 2 4 6
M  V30 6 2 5 7
M  V30 7 1 7 8
M  V30 8 1 8 9
M  V30 9 1 9 10
M  V30 10 1 10 11
M  V30 11 2 11 12
M  V30 12 1 11 13
M  V30 13 1 12 14
M  V30 14 1 13 15
M  V30 15 2 14 16
M  V30 16 1 14 17
M  V30 17 2 15 18
M  V30 18 1 16 19
M  V30 19 2 17 20
M  V30 20 2 19 21
M  V30 21 1 6 7
M  V30 22 1 15 16
M  V30 23 1 20 21
M  V30 END BOND
M  V30 END CTAB
M  END
>  <Structure No>
395

>  <Catalog ID>
Z44531315

>  <MW (desalted)>
283.300

>  <ClogP>
0.974

>  <HBD>
2

>  <TPSA>
53.490

>  <RotBonds>
4

>  <Target>
parp10

>  <fromRegid>


>  <Similarity>


$$$$
Compound 396
Actelion Java MolfileCreator 2.0

  0  0  0  0  0  0              0 V3000
M  V30 BEGIN CTAB
M  V30 COUNTS 21 22 0 0 0
M  V30 BEGIN ATOM
M  V30 1 O 0.0 0.0 0.0 0
M  V30 2 C 0.4517 -1.4131 0.0 0
M  V30 3 N 1.9111 -1.7142 0.0 0
M  V30 4 C -0.5675 -2.5135 0.0 0
M  V30 5 C -2.0501 -2.1891 0.0 0
M  V30 6 C -0.1158 -3.9266 0.0 0
M  V30 7 C -3.0695 -3.2895 0.0 0
M  V30 8 C -1.1351 -5.027 0.0 0
M  V30 9 N -4.5521 -2.9652 0.0 0
M  V30 10 C -2.6177 -4.7027 0.0 0
M  V30 11 C -5.5714 -4.0656 0.0 0
M  V30 12 O -5.1196 -5.4787 0.0 0
M  V30 13 C -7.054 -3.7413 0.0 0
M  V30 14 C -8.0733 -4.8417 0.0 0
M  V30 15 C -9.0926 -3.7181 0.0 0
M  V30 16 C -9.3011 -5.7104 0.0 0
M  V30 17 C -6.8687 -5.7104 0.0 0
M  V30 18 O -10.5753 -4.0193 0.0 0
M  V30 19 O -8.6409 -2.2818 0.0 0
M  V30 20 C -8.8494 -7.1235 0.0 0
M  V30 21 C -7.3436 -7.1235 0.0 0
M  V30 END ATOM
M  V30 BEGIN BOND
M  V30 1 2 1 2
M  V30 2 1 2 3
M  V30 3 1 2 4
M  V30 4 2 4 5
M  V30 5 1 4 6
M  V30 6 1 5 7
M  V30 7 2 6 8
M  V30 8 1 7 9
M  V30 9 2 7 10
M  V30 10 1 9 11
M  V30 11 2 11 12
M  V30 12 1 11 13
M  V30 13 1 13 14
M  V30 14 1 14 15
M  V30 15 1 14 16
M  V30 16 1 14 17
M  V30 17 2 15 18
M  V30 18 1 15 19
M  V30 19 1 16 20
M  V30 20 1 17 21
M  V30 21 1 8 10
M  V30 22 1 20 21
M  V30 END BOND
M  V30 END CTAB
M  END
>  <Structure No>
396

>  <Catalog ID>
Z221346202

>  <MW (desalted)>
290.314

>  <ClogP>
1.213

>  <HBD>
3

>  <TPSA>
109.490

>  <RotBonds>
5

>  <Target>
Poly [ADP-ribose] polymerase-1

>  <fromRegid>
CHEMBL3414766

>  <Similarity>
0.92

$$$$
Compound 397
Actelion Java MolfileCreator 2.0

  0  0  0  0  0  0              0 V3000
M  V30 BEGIN CTAB
M  V30 COUNTS 21 23 0 0 0
M  V30 BEGIN ATOM
M  V30 1 O 0.0 0.0 0.0 0
M  V30 2 C -0.0118 -1.4943 0.0 0
M  V30 3 N -1.3283 -2.2297 0.0 0
M  V30 4 C 1.2808 -2.2297 0.0 0
M  V30 5 N -1.3401 -3.724 0.0 0
M  V30 6 C 1.269 -3.724 0.0 0
M  V30 7 C 2.5736 -1.4706 0.0 0
M  V30 8 C -0.0474 -4.4712 0.0 0
M  V30 9 C 2.5617 -4.4712 0.0 0
M  V30 10 C 3.8664 -2.2059 0.0 0
M  V30 11 C -0.0593 -5.9656 0.0 0
M  V30 12 C 3.8545 -3.7122 0.0 0
M  V30 13 O 1.2334 -6.7128 0.0 0
M  V30 14 N -1.3757 -6.7128 0.0 0
M  V30 15 C -1.3876 -8.2072 0.0 0 CFG=2
M  V30 16 C -2.7041 -8.9425 0.0 0
M  V30 17 C -0.0948 -8.9425 0.0 0
M  V30 18 O -4.0917 -8.3139 0.0 0
M  V30 19 C -2.8701 -10.425 0.0 0
M  V30 20 C -5.1117 -9.4169 0.0 0
M  V30 21 C -4.3526 -10.7215 0.0 0
M  V30 END ATOM
M  V30 BEGIN BOND
M  V30 1 2 1 2
M  V30 2 1 2 3
M  V30 3 1 2 4
M  V30 4 1 3 5
M  V30 5 2 4 6
M  V30 6 1 4 7
M  V30 7 2 5 8
M  V30 8 1 6 9
M  V30 9 2 7 10
M  V30 10 1 8 11
M  V30 11 2 9 12
M  V30 12 2 11 13
M  V30 13 1 11 14
M  V30 14 1 15 14 CFG=1
M  V30 15 1 15 16
M  V30 16 1 15 17
M  V30 17 1 16 18
M  V30 18 2 16 19
M  V30 19 1 18 20
M  V30 20 1 19 21
M  V30 21 1 6 8
M  V30 22 1 10 12
M  V30 23 2 20 21
M  V30 END BOND
M  V30 BEGIN COLLECTION
M  V30 MDLV30/STERAC1 ATOMS=(1 15)
M  V30 END COLLECTION
M  V30 END CTAB
M  END
>  <Structure No>
397

>  <Catalog ID>
Z89606264

>  <MW (desalted)>
283.282

>  <ClogP>
0.645

>  <HBD>
2

>  <TPSA>
83.700

>  <RotBonds>
3

>  <Target>
parp2

>  <fromRegid>


>  <Similarity>


$$$$
Compound 398
Actelion Java MolfileCreator 2.0

  0  0  0  0  0  0              0 V3000
M  V30 BEGIN CTAB
M  V30 COUNTS 21 23 0 0 0
M  V30 BEGIN ATOM
M  V30 1 O 0.0 0.0 0.0 0
M  V30 2 C -0.0118 -1.4972 0.0 0
M  V30 3 N -1.3308 -2.2339 0.0 0
M  V30 4 C 1.2833 -2.2339 0.0 0
M  V30 5 N -1.3427 -3.7312 0.0 0
M  V30 6 C 1.2714 -3.7312 0.0 0
M  V30 7 C 2.5785 -1.4734 0.0 0
M  V30 8 C -0.0475 -4.4798 0.0 0
M  V30 9 C 2.5667 -4.4798 0.0 0
M  V30 10 C 3.8738 -2.2102 0.0 0
M  V30 11 C -0.0594 -5.9771 0.0 0
M  V30 12 C 3.8619 -3.7193 0.0 0
M  V30 13 O -1.3784 -6.7257 0.0 0
M  V30 14 N 1.2358 -6.7257 0.0 0
M  V30 15 C 1.2239 -8.2229 0.0 0
M  V30 16 C 2.531 -5.9533 0.0 0
M  V30 17 C 2.5191 -8.9597 0.0 0
M  V30 18 O 2.6617 -10.445 0.0 0
M  V30 19 C 3.8857 -8.3299 0.0 0
M  V30 20 C 4.1233 -10.7421 0.0 0
M  V30 21 C 4.8838 -9.435 0.0 0
M  V30 END ATOM
M  V30 BEGIN BOND
M  V30 1 2 1 2
M  V30 2 1 2 3
M  V30 3 1 2 4
M  V30 4 1 3 5
M  V30 5 2 4 6
M  V30 6 1 4 7
M  V30 7 2 5 8
M  V30 8 1 6 9
M  V30 9 2 7 10
M  V30 10 1 8 11
M  V30 11 2 9 12
M  V30 12 2 11 13
M  V30 13 1 11 14
M  V30 14 1 14 15
M  V30 15 1 14 16
M  V30 16 1 15 17
M  V30 17 1 17 18
M  V30 18 2 17 19
M  V30 19 1 18 20
M  V30 20 1 19 21
M  V30 21 1 6 8
M  V30 22 1 10 12
M  V30 23 2 20 21
M  V30 END BOND
M  V30 END CTAB
M  END
>  <Structure No>
398

>  <Catalog ID>
Z32456027

>  <MW (desalted)>
283.282

>  <ClogP>
0.103

>  <HBD>
1

>  <TPSA>
74.910

>  <RotBonds>
3

>  <Target>
parp2

>  <fromRegid>


>  <Similarity>


$$$$
Compound 399
Actelion Java MolfileCreator 2.0

  0  0  0  0  0  0              0 V3000
M  V30 BEGIN CTAB
M  V30 COUNTS 21 23 0 0 0
M  V30 BEGIN ATOM
M  V30 1 O 0.0 0.0 0.0 0
M  V30 2 C -0.0118 1.512 0.0 0
M  V30 3 N 1.2758 2.2799 0.0 0
M  V30 4 C -1.323 2.2799 0.0 0 CFG=1
M  V30 5 C 2.5634 1.5357 0.0 0
M  V30 6 N -1.3348 3.792 0.0 0
M  V30 7 C -2.6343 1.5357 0.0 0
M  V30 8 C 2.5516 0.0472 0.0 0
M  V30 9 C 3.851 2.3035 0.0 0
M  V30 10 C -3.9455 2.3035 0.0 0
M  V30 11 C 3.8392 -0.6851 0.0 0
M  V30 12 C 5.1387 1.5593 0.0 0
M  V30 13 C -5.2568 1.5593 0.0 0
M  V30 14 C -3.9573 3.8156 0.0 0
M  V30 15 C 5.1268 0.0708 0.0 0
M  V30 16 C 4.1345 -2.1381 0.0 0
M  V30 17 C -6.568 2.3271 0.0 0
M  V30 18 C -5.2686 4.5716 0.0 0
M  V30 19 N 6.2255 -0.9214 0.0 0
M  V30 20 N 5.6112 -2.2799 0.0 0
M  V30 21 C -6.5799 3.8392 0.0 0
M  V30 END ATOM
M  V30 BEGIN BOND
M  V30 1 2 1 2
M  V30 2 1 2 3
M  V30 3 1 2 4
M  V30 4 1 3 5
M  V30 5 1 4 6 CFG=3
M  V30 6 1 4 7
M  V30 7 2 5 8
M  V30 8 1 5 9
M  V30 9 1 7 10
M  V30 10 1 8 11
M  V30 11 2 9 12
M  V30 12 2 10 13
M  V30 13 1 10 14
M  V30 14 2 11 15
M  V30 15 1 11 16
M  V30 16 1 13 17
M  V30 17 2 14 18
M  V30 18 1 15 19
M  V30 19 2 16 20
M  V30 20 2 17 21
M  V30 21 1 12 15
M  V30 22 1 18 21
M  V30 23 1 19 20
M  V30 END BOND
M  V30 BEGIN COLLECTION
M  V30 MDLV30/STERAC1 ATOMS=(1 4)
M  V30 END COLLECTION
M  V30 END CTAB
M  END
>  <Structure No>
399

>  <Catalog ID>
Z445431132

>  <MW (desalted)>
280.324

>  <ClogP>
2.046

>  <HBD>
3

>  <TPSA>
83.800

>  <RotBonds>
4

>  <Target>
CHK1

>  <fromRegid>


>  <Similarity>


$$$$
Compound 400
Actelion Java MolfileCreator 2.0

  0  0  0  0  0  0              0 V3000
M  V30 BEGIN CTAB
M  V30 COUNTS 22 23 0 0 0
M  V30 BEGIN ATOM
M  V30 1 Cl 0.0 0.0 0.0 0
M  V30 2 O 3.7919 0.7583 0.0 0
M  V30 3 C 4.2422 -0.6635 0.0 0
M  V30 4 N 3.3416 -1.8722 0.0 0
M  V30 5 C 5.6642 -1.1138 0.0 0
M  V30 6 C 4.2185 -3.0809 0.0 0
M  V30 7 C 5.6523 -2.6069 0.0 0
M  V30 8 C 6.9558 -0.3554 0.0 0
M  V30 9 O 3.7445 -4.5029 0.0 0
M  V30 10 C 6.944 -3.3535 0.0 0
M  V30 11 C 8.2474 -1.102 0.0 0
M  V30 12 C 8.2356 -2.5951 0.0 0
M  V30 13 N 9.5391 -0.3436 0.0 0
M  V30 14 C 9.5272 1.1731 0.0 0
M  V30 15 O 8.2119 1.9315 0.0 0
M  V30 16 C 10.8189 1.9315 0.0 0
M  V30 17 C 12.1105 1.1849 0.0 0
M  V30 18 C 10.807 3.4483 0.0 0
M  V30 19 C 13.4021 1.9433 0.0 0
M  V30 20 C 12.0986 4.2066 0.0 0
M  V30 21 C 13.3903 3.4601 0.0 0
M  V30 22 N 14.6819 4.2185 0.0 0
M  V30 END ATOM
M  V30 BEGIN BOND
M  V30 1 2 2 3
M  V30 2 1 3 4
M  V30 3 1 3 5
M  V30 4 1 4 6
M  V30 5 2 5 7
M  V30 6 1 5 8
M  V30 7 2 6 9
M  V30 8 1 7 10
M  V30 9 2 8 11
M  V30 10 2 10 12
M  V30 11 1 11 13
M  V30 12 1 13 14
M  V30 13 2 14 15
M  V30 14 1 14 16
M  V30 15 1 16 17
M  V30 16 1 16 18
M  V30 17 1 17 19
M  V30 18 1 18 20
M  V30 19 1 19 21
M  V30 20 1 21 22
M  V30 21 1 6 7
M  V30 22 1 11 12
M  V30 23 1 20 21
M  V30 END BOND
M  V30 END CTAB
M  END
>  <Structure No>
400

>  <Catalog ID>
Z1436476353

>  <MW (desalted)>
287.314

>  <ClogP>
0.536

>  <HBD>
3

>  <TPSA>
101.290

>  <RotBonds>
2

>  <Target>
Serine/threonine-protein kinase Chk1

>  <fromRegid>
CHEMBL541259

>  <Similarity>
0.85

$$$$
Compound 401
Actelion Java MolfileCreator 2.0

  0  0  0  0  0  0              0 V3000
M  V30 BEGIN CTAB
M  V30 COUNTS 21 23 0 0 0
M  V30 BEGIN ATOM
M  V30 1 O 0.0 0.0 0.0 0
M  V30 2 C -0.0117 1.5076 0.0 0
M  V30 3 N -1.3192 2.2732 0.0 0
M  V30 4 C 1.272 2.2732 0.0 0
M  V30 5 C -1.3309 3.7809 0.0 0
M  V30 6 C 1.2603 3.7809 0.0 0
M  V30 7 C 2.5559 1.5312 0.0 0
M  V30 8 N -2.6384 4.5465 0.0 0
M  V30 9 C -0.0471 4.5465 0.0 0
M  V30 10 C 2.5441 4.5465 0.0 0
M  V30 11 C 3.8398 2.2968 0.0 0
M  V30 12 C -3.9458 3.8044 0.0 0
M  V30 13 C 3.828 3.8044 0.0 0
M  V30 14 C -3.9576 2.3203 0.0 0
M  V30 15 C -5.2532 4.57 0.0 0
M  V30 16 C -5.265 1.5783 0.0 0
M  V30 17 C -6.5606 3.828 0.0 0
M  V30 18 C -5.2768 0.0942 0.0 0
M  V30 19 C -6.5724 2.3439 0.0 0
M  V30 20 O -3.9929 -0.6478 0.0 0
M  V30 21 O -6.5842 -0.6478 0.0 0
M  V30 END ATOM
M  V30 BEGIN BOND
M  V30 1 2 1 2
M  V30 2 1 2 3
M  V30 3 1 2 4
M  V30 4 1 3 5
M  V30 5 2 4 6
M  V30 6 1 4 7
M  V30 7 1 5 8
M  V30 8 2 5 9
M  V30 9 1 6 10
M  V30 10 2 7 11
M  V30 11 1 8 12
M  V30 12 2 10 13
M  V30 13 2 12 14
M  V30 14 1 12 15
M  V30 15 1 14 16
M  V30 16 2 15 17
M  V30 17 1 16 18
M  V30 18 2 16 19
M  V30 19 2 18 20
M  V30 20 1 18 21
M  V30 21 1 6 9
M  V30 22 1 11 13
M  V30 23 1 17 19
M  V30 END BOND
M  V30 END CTAB
M  END
>  <Structure No>
401

>  <Catalog ID>
Z608408108

>  <MW (desalted)>
280.278

>  <ClogP>
2.694

>  <HBD>
3

>  <TPSA>
78.430

>  <RotBonds>
3

>  <Target>
CHK1

>  <fromRegid>


>  <Similarity>


$$$$
Compound 402
Actelion Java MolfileCreator 2.0

  0  0  0  0  0  0              0 V3000
M  V30 BEGIN CTAB
M  V30 COUNTS 21 22 0 0 0
M  V30 BEGIN ATOM
M  V30 1 O 0.0 0.0 0.0 0
M  V30 2 C -0.0117 1.507 0.0 0
M  V30 3 N -1.3186 2.2605 0.0 0
M  V30 4 C 1.2715 2.2605 0.0 0
M  V30 5 C -1.3304 3.7675 0.0 0
M  V30 6 C 1.2597 3.7675 0.0 0
M  V30 7 C 2.5548 1.5305 0.0 0
M  V30 8 N -0.047 4.5328 0.0 0
M  V30 9 C -2.6372 4.5328 0.0 0
M  V30 10 C 2.543 4.5328 0.0 0
M  V30 11 C 3.8381 2.284 0.0 0
M  V30 12 N -3.9441 3.791 0.0 0
M  V30 13 C 3.8264 3.791 0.0 0
M  V30 14 C 2.5313 6.0398 0.0 0
M  V30 15 C -5.251 4.5563 0.0 0
M  V30 16 C -3.9559 2.3076 0.0 0
M  V30 17 C -6.5578 3.8146 0.0 0
M  V30 18 C -2.6725 1.5776 0.0 0
M  V30 19 C -7.8647 4.5799 0.0 0
M  V30 20 O -9.1715 3.8381 0.0 0
M  V30 21 O -7.8765 6.0869 0.0 0
M  V30 END ATOM
M  V30 BEGIN BOND
M  V30 1 2 1 2
M  V30 2 1 2 3
M  V30 3 1 2 4
M  V30 4 1 3 5
M  V30 5 2 4 6
M  V30 6 1 4 7
M  V30 7 2 5 8
M  V30 8 1 5 9
M  V30 9 1 6 10
M  V30 10 2 7 11
M  V30 11 1 9 12
M  V30 12 2 10 13
M  V30 13 1 10 14
M  V30 14 1 12 15
M  V30 15 1 12 16
M  V30 16 1 15 17
M  V30 17 1 16 18
M  V30 18 1 17 19
M  V30 19 2 19 20
M  V30 20 1 19 21
M  V30 21 1 6 8
M  V30 22 1 11 13
M  V30 END BOND
M  V30 END CTAB
M  END
>  <Structure No>
402

>  <Catalog ID>
Z728862468

>  <MW (desalted)>
289.330

>  <ClogP>
-1.198

>  <HBD>
2

>  <TPSA>
82.000

>  <RotBonds>
6

>  <Target>
parp1

>  <fromRegid>


>  <Similarity>


$$$$
Compound 403
Actelion Java MolfileCreator 2.0

  0  0  0  0  0  0              0 V3000
M  V30 BEGIN CTAB
M  V30 COUNTS 21 23 0 0 0
M  V30 BEGIN ATOM
M  V30 1 O 0.0 0.0 0.0 0
M  V30 2 C -0.0117 1.5097 0.0 0
M  V30 3 N -1.321 2.2764 0.0 0
M  V30 4 C 1.2738 2.2764 0.0 0
M  V30 5 C -1.3328 3.7862 0.0 0
M  V30 6 C 1.262 3.7862 0.0 0
M  V30 7 C 2.5595 1.5333 0.0 0
M  V30 8 N -0.0471 4.5528 0.0 0
M  V30 9 C -2.642 4.5528 0.0 0
M  V30 10 C 2.5477 4.5528 0.0 0
M  V30 11 C 3.8451 2.3 0.0 0
M  V30 12 N -3.9513 3.8098 0.0 0
M  V30 13 C 3.8333 3.8098 0.0 0
M  V30 14 C -4.1164 2.3354 0.0 0 CFG=2
M  V30 15 C -5.3313 4.4349 0.0 0
M  V30 16 C -5.5908 2.0405 0.0 0
M  V30 17 C -3.0195 1.3446 0.0 0
M  V30 18 C -6.3457 3.3379 0.0 0
M  V30 19 C -3.3379 -0.1061 0.0 0
M  V30 20 O -4.7769 -0.5543 0.0 0
M  V30 21 O -2.241 -1.0969 0.0 0
M  V30 END ATOM
M  V30 BEGIN BOND
M  V30 1 2 1 2
M  V30 2 1 2 3
M  V30 3 1 2 4
M  V30 4 1 3 5
M  V30 5 2 4 6
M  V30 6 1 4 7
M  V30 7 2 5 8
M  V30 8 1 5 9
M  V30 9 1 6 10
M  V30 10 2 7 11
M  V30 11 1 9 12
M  V30 12 2 10 13
M  V30 13 1 12 14
M  V30 14 1 12 15
M  V30 15 1 14 16
M  V30 16 1 14 17 CFG=1
M  V30 17 1 15 18
M  V30 18 1 17 19
M  V30 19 2 19 20
M  V30 20 1 19 21
M  V30 21 1 6 8
M  V30 22 1 11 13
M  V30 23 1 16 18
M  V30 END BOND
M  V30 BEGIN COLLECTION
M  V30 MDLV30/STERAC1 ATOMS=(1 14)
M  V30 END COLLECTION
M  V30 END CTAB
M  END
>  <Structure No>
403

>  <Catalog ID>
Z808569596

>  <MW (desalted)>
287.314

>  <ClogP>
-1.694

>  <HBD>
2

>  <TPSA>
82.000

>  <RotBonds>
4

>  <Target>
parp1

>  <fromRegid>


>  <Similarity>


$$$$
Compound 404
Actelion Java MolfileCreator 2.0

  0  0  0  0  0  0              0 V3000
M  V30 BEGIN CTAB
M  V30 COUNTS 21 23 0 0 0
M  V30 BEGIN ATOM
M  V30 1 F 0.0 0.0 0.0 0
M  V30 2 C 1.2969 -0.7495 0.0 0
M  V30 3 F 0.5235 -2.0465 0.0 0
M  V30 4 F 2.0346 0.5711 0.0 0
M  V30 5 C 2.5938 -1.4872 0.0 0
M  V30 6 C 3.8907 -0.7257 0.0 0
M  V30 7 C 2.5819 -2.9864 0.0 0
M  V30 8 C 5.1876 -1.4634 0.0 0
M  V30 9 C 3.8788 -3.7241 0.0 0
M  V30 10 C 5.1757 -2.9626 0.0 0
M  V30 11 C 6.4726 -3.7003 0.0 0
M  V30 12 N 7.7695 -2.9388 0.0 0
M  V30 13 N 6.4607 -5.1995 0.0 0
M  V30 14 C 9.0664 -3.6765 0.0 0
M  V30 15 C 7.7576 -5.9491 0.0 0
M  V30 16 C 9.0545 -5.1757 0.0 0
M  V30 17 C 10.3633 -2.915 0.0 0
M  V30 18 O 7.7457 -7.4483 0.0 0
M  V30 19 C 10.3514 -5.9253 0.0 0
M  V30 20 C 11.6603 -3.6527 0.0 0
M  V30 21 C 11.6484 -5.1519 0.0 0
M  V30 END ATOM
M  V30 BEGIN BOND
M  V30 1 1 1 2
M  V30 2 1 2 3
M  V30 3 1 2 4
M  V30 4 1 2 5
M  V30 5 2 5 6
M  V30 6 1 5 7
M  V30 7 1 6 8
M  V30 8 2 7 9
M  V30 9 2 8 10
M  V30 10 1 10 11
M  V30 11 2 11 12
M  V30 12 1 11 13
M  V30 13 1 12 14
M  V30 14 1 13 15
M  V30 15 2 14 16
M  V30 16 1 14 17
M  V30 17 2 15 18
M  V30 18 1 16 19
M  V30 19 1 17 20
M  V30 20 1 19 21
M  V30 21 1 9 10
M  V30 22 1 15 16
M  V30 23 1 20 21
M  V30 END BOND
M  V30 END CTAB
M  END
>  <Structure No>
404

>  <Catalog ID>
Z813022034

>  <MW (desalted)>
294.272

>  <ClogP>
3.291

>  <HBD>
1

>  <TPSA>
41.460

>  <RotBonds>
2

>  <Target>
Poly [ADP-ribose] polymerase-1

>  <fromRegid>
CHEMBL2419891

>  <Similarity>
1.0

$$$$
Compound 405
Actelion Java MolfileCreator 2.0

  0  0  0  0  0  0              0 V3000
M  V30 BEGIN CTAB
M  V30 COUNTS 21 23 0 0 0
M  V30 BEGIN ATOM
M  V30 1 S 0.0 0.0 0.0 0
M  V30 2 C -0.896 1.2261 0.0 0
M  V30 3 C 1.4147 0.4715 0.0 0
M  V30 4 N -0.0235 2.4523 0.0 0
M  V30 5 N -2.4051 1.2379 0.0 0
M  V30 6 C 1.403 1.9807 0.0 0
M  V30 7 C 2.6999 -0.2711 0.0 0
M  V30 8 C -3.1597 -0.0471 0.0 0
M  V30 9 C 2.6881 2.747 0.0 0
M  V30 10 C 3.985 0.4951 0.0 0
M  V30 11 O -2.4287 -1.3322 0.0 0
M  V30 12 C -4.6688 -0.0353 0.0 0
M  V30 13 C 3.9732 2.016 0.0 0
M  V30 14 C -5.4351 -1.3204 0.0 0
M  V30 15 C -5.4351 1.2733 0.0 0
M  V30 16 C -4.6924 -2.6055 0.0 0
M  V30 17 C -6.9443 -1.3086 0.0 0
M  V30 18 C -6.9443 1.2851 0.0 0
M  V30 19 O -3.2068 -2.5937 0.0 0
M  V30 20 O -5.4587 -3.8906 0.0 0
M  V30 21 C -7.7106 0.0 0.0 0
M  V30 END ATOM
M  V30 BEGIN BOND
M  V30 1 1 1 2
M  V30 2 1 1 3
M  V30 3 2 2 4
M  V30 4 1 2 5
M  V30 5 2 3 6
M  V30 6 1 3 7
M  V30 7 1 5 8
M  V30 8 1 6 9
M  V30 9 1 7 10
M  V30 10 2 8 11
M  V30 11 1 8 12
M  V30 12 1 9 13
M  V30 13 1 12 14
M  V30 14 1 12 15
M  V30 15 1 14 16
M  V30 16 1 14 17
M  V30 17 1 15 18
M  V30 18 2 16 19
M  V30 19 1 16 20
M  V30 20 1 17 21
M  V30 21 1 4 6
M  V30 22 1 10 13
M  V30 23 1 18 21
M  V30 END BOND
M  V30 END CTAB
M  END
>  <Structure No>
405

>  <Catalog ID>
Z283696416

>  <MW (desalted)>
308.396

>  <ClogP>
3.154

>  <HBD>
2

>  <TPSA>
79.290

>  <RotBonds>
3

>  <Target>
Poly [ADP-ribose] polymerase-1

>  <fromRegid>
CHEMBL448447

>  <Similarity>
0.87

$$$$
Compound 406
Actelion Java MolfileCreator 2.0

  0  0  0  0  0  0              0 V3000
M  V30 BEGIN CTAB
M  V30 COUNTS 21 22 0 0 0
M  V30 BEGIN ATOM
M  V30 1 O 0.0 0.0 0.0 0
M  V30 2 C -0.0118 -1.4901 0.0 0
M  V30 3 N -1.3245 -2.2234 0.0 0
M  V30 4 C 1.2772 -2.2234 0.0 0
M  V30 5 N -1.3364 -3.7135 0.0 0
M  V30 6 C 1.2654 -3.7135 0.0 0
M  V30 7 C 2.5663 -1.4665 0.0 0
M  V30 8 C -0.0473 -4.4586 0.0 0
M  V30 9 C 2.5545 -4.4586 0.0 0
M  V30 10 C 3.8555 -2.1997 0.0 0
M  V30 11 C -0.0591 -5.9488 0.0 0
M  V30 12 C 3.8436 -3.6899 0.0 0
M  V30 13 O 1.2299 -6.6939 0.0 0
M  V30 14 N -1.3718 -6.6939 0.0 0
M  V30 15 C -2.6846 -5.9251 0.0 0
M  V30 16 C -3.9974 -6.6702 0.0 0
M  V30 17 N -5.3101 -5.9015 0.0 0
M  V30 18 C -6.6229 -6.6466 0.0 0
M  V30 19 C -5.322 -4.3877 0.0 0
M  V30 20 C -7.9357 -5.8778 0.0 0
M  V30 21 C -4.0329 -3.6189 0.0 0
M  V30 END ATOM
M  V30 BEGIN BOND
M  V30 1 2 1 2
M  V30 2 1 2 3
M  V30 3 1 2 4
M  V30 4 1 3 5
M  V30 5 2 4 6
M  V30 6 1 4 7
M  V30 7 2 5 8
M  V30 8 1 6 9
M  V30 9 2 7 10
M  V30 10 1 8 11
M  V30 11 2 9 12
M  V30 12 2 11 13
M  V30 13 1 11 14
M  V30 14 1 14 15
M  V30 15 1 15 16
M  V30 16 1 16 17
M  V30 17 1 17 18
M  V30 18 1 17 19
M  V30 19 1 18 20
M  V30 20 1 19 21
M  V30 21 1 6 8
M  V30 22 1 10 12
M  V30 END BOND
M  V30 END CTAB
M  END
>  <Structure No>
406

>  <Catalog ID>
Z31448011

>  <MW (desalted)>
288.345

>  <ClogP>
0.661

>  <HBD>
2

>  <TPSA>
73.800

>  <RotBonds>
6

>  <Target>
Poly [ADP-ribose] polymerase-1

>  <fromRegid>
CHEMBL3105422

>  <Similarity>
0.85

$$$$
Compound 407
Actelion Java MolfileCreator 2.0

  0  0  0  0  0  0              0 V3000
M  V30 BEGIN CTAB
M  V30 COUNTS 21 23 0 0 0
M  V30 BEGIN ATOM
M  V30 1 O 0.0 0.0 0.0 0
M  V30 2 C -0.0118 -1.4879 0.0 0
M  V30 3 N -1.3226 -2.2201 0.0 0
M  V30 4 C 1.2753 -2.2201 0.0 0 CFG=1
M  V30 5 C -2.6334 -1.4643 0.0 0
M  V30 6 O 1.2635 -3.708 0.0 0
M  V30 7 C 2.5625 -1.4643 0.0 0
M  V30 8 C -3.9442 -2.1965 0.0 0
M  V30 9 C 2.5507 -4.452 0.0 0
M  V30 10 N 3.8497 -2.1965 0.0 0
M  V30 11 N -5.255 -1.4407 0.0 0
M  V30 12 C 3.8379 -3.6844 0.0 0
M  V30 13 C -5.4203 0.059 0.0 0
M  V30 14 C -6.6367 -2.0429 0.0 0
M  V30 15 C -6.8965 0.3778 0.0 0
M  V30 16 C -4.4284 1.1809 0.0 0
M  V30 17 N -7.6523 -0.9211 0.0 0
M  V30 18 C -6.9555 -3.4955 0.0 0
M  V30 19 C -7.3689 1.8186 0.0 0
M  V30 20 C -4.9007 2.6216 0.0 0
M  V30 21 C -6.3769 2.9404 0.0 0
M  V30 END ATOM
M  V30 BEGIN BOND
M  V30 1 2 1 2
M  V30 2 1 2 3
M  V30 3 1 4 2 CFG=3
M  V30 4 1 3 5
M  V30 5 1 4 6
M  V30 6 1 4 7
M  V30 7 1 5 8
M  V30 8 1 6 9
M  V30 9 1 7 10
M  V30 10 1 8 11
M  V30 11 1 9 12
M  V30 12 1 11 13
M  V30 13 1 11 14
M  V30 14 2 13 15
M  V30 15 1 13 16
M  V30 16 2 14 17
M  V30 17 1 14 18
M  V30 18 1 15 19
M  V30 19 2 16 20
M  V30 20 2 19 21
M  V30 21 1 10 12
M  V30 22 1 15 17
M  V30 23 1 20 21
M  V30 END BOND
M  V30 BEGIN COLLECTION
M  V30 MDLV30/STERAC1 ATOMS=(1 4)
M  V30 END COLLECTION
M  V30 END CTAB
M  END
>  <Structure No>
407

>  <Catalog ID>
Z854100722

>  <MW (desalted)>
288.345

>  <ClogP>
0.899

>  <HBD>
2

>  <TPSA>
68.180

>  <RotBonds>
4

>  <Target>
CHK2

>  <fromRegid>


>  <Similarity>


$$$$
Compound 408
Actelion Java MolfileCreator 2.0

  0  0  0  0  0  0              0 V3000
M  V30 BEGIN CTAB
M  V30 COUNTS 23 23 0 0 0
M  V30 BEGIN ATOM
M  V30 1 Cl 0.0 0.0 0.0 0
M  V30 2 Cl 3.5785 0.0941 0.0 0
M  V30 3 O 2.0718 -8.8522 0.0 0
M  V30 4 C 2.06 -7.3455 0.0 0
M  V30 5 N 0.7533 -6.5921 0.0 0
M  V30 6 C 3.3431 -6.5921 0.0 0
M  V30 7 C 0.7416 -5.0853 0.0 0
M  V30 8 C 3.3313 -5.0853 0.0 0
M  V30 9 C 4.6262 -7.3219 0.0 0
M  V30 10 N 2.0247 -4.3202 0.0 0
M  V30 11 C -0.565 -4.3202 0.0 0
M  V30 12 C 4.6144 -4.3202 0.0 0
M  V30 13 C 5.9093 -6.5685 0.0 0
M  V30 14 N -1.8716 -5.0618 0.0 0
M  V30 15 C 5.8976 -5.0618 0.0 0
M  V30 16 C -3.1783 -4.2966 0.0 0
M  V30 17 C -1.8834 -6.545 0.0 0
M  V30 18 C -4.485 -5.0382 0.0 0 CFG=2
M  V30 19 C -3.1901 -7.2748 0.0 0
M  V30 20 O -4.4967 -6.5215 0.0 0
M  V30 21 C -5.7916 -4.2731 0.0 0
M  V30 22 O -5.8034 -2.7663 0.0 0
M  V30 23 O -7.0983 -5.0147 0.0 0
M  V30 END ATOM
M  V30 BEGIN BOND
M  V30 1 2 3 4
M  V30 2 1 4 5
M  V30 3 1 4 6
M  V30 4 1 5 7
M  V30 5 2 6 8
M  V30 6 1 6 9
M  V30 7 2 7 10
M  V30 8 1 7 11
M  V30 9 1 8 12
M  V30 10 2 9 13
M  V30 11 1 11 14
M  V30 12 2 12 15
M  V30 13 1 14 16
M  V30 14 1 14 17
M  V30 15 1 16 18
M  V30 16 1 17 19
M  V30 17 1 18 20
M  V30 18 1 18 21 CFG=3
M  V30 19 2 21 22
M  V30 20 1 21 23
M  V30 21 1 8 10
M  V30 22 1 13 15
M  V30 23 1 19 20
M  V30 END BOND
M  V30 BEGIN COLLECTION
M  V30 MDLV30/STERAC1 ATOMS=(1 18)
M  V30 END COLLECTION
M  V30 END CTAB
M  END
>  <Structure No>
408

>  <Catalog ID>
Z1268152288

>  <MW (desalted)>
289.287

>  <ClogP>
-2.621

>  <HBD>
2

>  <TPSA>
91.230

>  <RotBonds>
3

>  <Target>
parp10

>  <fromRegid>


>  <Similarity>


$$$$
Compound 409
Actelion Java MolfileCreator 2.0

  0  0  0  0  0  0              0 V3000
M  V30 BEGIN CTAB
M  V30 COUNTS 21 23 0 0 0
M  V30 BEGIN ATOM
M  V30 1 S 0.0 0.0 0.0 0
M  V30 2 O 1.4916 0.0118 0.0 0
M  V30 3 O -1.5153 0.0118 0.0 0
M  V30 4 N -0.0118 -1.4916 0.0 0
M  V30 5 C -0.0118 1.5153 0.0 0
M  V30 6 C 1.2785 -2.2375 0.0 0
M  V30 7 C -1.3259 -2.2375 0.0 0
M  V30 8 C 1.2785 2.273 0.0 0
M  V30 9 C -1.3259 2.273 0.0 0
M  V30 10 C 1.2667 -3.7291 0.0 0 CFG=1
M  V30 11 C -1.3377 -3.7291 0.0 0
M  V30 12 C 1.2667 3.7883 0.0 0
M  V30 13 C 2.569 1.539 0.0 0
M  V30 14 C -1.3377 3.7883 0.0 0
M  V30 15 N 2.5571 -4.4631 0.0 0
M  V30 16 C -0.0473 -4.4631 0.0 0
M  V30 17 C 2.5571 4.546 0.0 0
M  V30 18 C -0.0473 4.546 0.0 0
M  V30 19 C 3.8594 2.2967 0.0 0
M  V30 20 C 2.5453 -5.9548 0.0 0
M  V30 21 N 3.8475 3.812 0.0 0
M  V30 END ATOM
M  V30 BEGIN BOND
M  V30 1 2 1 2
M  V30 2 2 1 3
M  V30 3 1 1 4
M  V30 4 1 1 5
M  V30 5 1 4 6
M  V30 6 1 4 7
M  V30 7 1 5 8
M  V30 8 2 5 9
M  V30 9 1 6 10
M  V30 10 1 7 11
M  V30 11 1 8 12
M  V30 12 2 8 13
M  V30 13 1 9 14
M  V30 14 1 10 15 CFG=1
M  V30 15 1 10 16
M  V30 16 2 12 17
M  V30 17 1 12 18
M  V30 18 1 13 19
M  V30 19 1 15 20
M  V30 20 1 17 21
M  V30 21 1 11 16
M  V30 22 2 14 18
M  V30 23 2 19 21
M  V30 END BOND
M  V30 BEGIN COLLECTION
M  V30 MDLV30/STERAC1 ATOMS=(1 10)
M  V30 END COLLECTION
M  V30 END CTAB
M  END
>  <Structure No>
409

>  <Catalog ID>
Z992564392

>  <MW (desalted)>
305.395

>  <ClogP>
1.454

>  <HBD>
1

>  <TPSA>
62.300

>  <RotBonds>
2

>  <Target>
Serine/threonine-protein kinase Chk2

>  <fromRegid>
CHEMBL38380

>  <Similarity>
0.9

$$$$
Compound 410
Actelion Java MolfileCreator 2.0

  0  0  0  0  0  0              0 V3000
M  V30 BEGIN CTAB
M  V30 COUNTS 21 24 0 0 0
M  V30 BEGIN ATOM
M  V30 1 O 0.0 0.0 0.0 0
M  V30 2 N 0.4495 -1.4197 0.0 0
M  V30 3 C 1.2068 0.8991 0.0 0
M  V30 4 C 1.9403 -1.4079 0.0 0
M  V30 5 N 2.4136 0.0236 0.0 0
M  V30 6 C 1.1949 2.4136 0.0 0
M  V30 7 C 2.8159 -2.6147 0.0 0
M  V30 8 C 2.4846 3.1708 0.0 0
M  V30 9 C -0.1183 3.1708 0.0 0
M  V30 10 N 1.5026 -3.3483 0.0 0
M  V30 11 C 3.9162 -1.5972 0.0 0
M  V30 12 C 3.4193 -3.9754 0.0 0
M  V30 13 C 2.4727 4.6853 0.0 0
M  V30 14 C 3.7742 2.4254 0.0 0
M  V30 15 C -0.1301 4.6853 0.0 0
M  V30 16 C 5.2058 -2.3426 0.0 0
M  V30 17 C 4.8982 -3.8097 0.0 0
M  V30 18 N 3.7624 5.4425 0.0 0
M  V30 19 C 1.1594 5.4425 0.0 0
M  V30 20 C 5.0639 3.1826 0.0 0
M  V30 21 C 5.052 4.7089 0.0 0
M  V30 END ATOM
M  V30 BEGIN BOND
M  V30 1 1 1 2
M  V30 2 1 1 3
M  V30 3 2 2 4
M  V30 4 2 3 5
M  V30 5 1 3 6
M  V30 6 1 4 7
M  V30 7 1 6 8
M  V30 8 2 6 9
M  V30 9 1 7 10
M  V30 10 1 7 11
M  V30 11 1 7 12
M  V30 12 1 8 13
M  V30 13 2 8 14
M  V30 14 1 9 15
M  V30 15 1 11 16
M  V30 16 1 12 17
M  V30 17 2 13 18
M  V30 18 1 13 19
M  V30 19 1 14 20
M  V30 20 1 18 21
M  V30 21 1 4 5
M  V30 22 2 15 19
M  V30 23 1 16 17
M  V30 24 2 20 21
M  V30 END BOND
M  V30 END CTAB
M  END
>  <Structure No>
410

>  <Catalog ID>
Z1021452788

>  <MW (desalted)>
280.324

>  <ClogP>
1.893

>  <HBD>
1

>  <TPSA>
77.830

>  <RotBonds>
2

>  <Target>
CHK2

>  <fromRegid>


>  <Similarity>


$$$$
Compound 411
Actelion Java MolfileCreator 2.0

  0  0  0  0  0  0              0 V3000
M  V30 BEGIN CTAB
M  V30 COUNTS 21 21 0 0 0
M  V30 BEGIN ATOM
M  V30 1 O 0.0 0.0 0.0 0
M  V30 2 C 1.2918 -0.7348 0.0 0
M  V30 3 N 2.5836 0.0237 0.0 0
M  V30 4 C 1.2799 -2.2281 0.0 0
M  V30 5 C 2.5718 1.5407 0.0 0
M  V30 6 C -0.0355 -2.9629 0.0 0
M  V30 7 C 2.5718 -2.9629 0.0 0
M  V30 8 C -0.0474 -4.4562 0.0 0
M  V30 9 C 2.5599 -4.4562 0.0 0
M  V30 10 N -1.3629 -5.191 0.0 0
M  V30 11 C 1.2444 -5.191 0.0 0
M  V30 12 C -1.3747 -6.6843 0.0 0
M  V30 13 O -0.0829 -7.4309 0.0 0
M  V30 14 C -2.6903 -7.4309 0.0 0
M  V30 15 C -2.7021 -8.9243 0.0 0
M  V30 16 C -2.714 -10.4176 0.0 0
M  V30 17 C -4.2191 -8.9124 0.0 0
M  V30 18 C -1.2088 -8.9124 0.0 0
M  V30 19 C -4.0295 -11.1642 0.0 0
M  V30 20 O -4.0414 -12.6575 0.0 0
M  V30 21 O -5.345 -10.3939 0.0 0
M  V30 END ATOM
M  V30 BEGIN BOND
M  V30 1 2 1 2
M  V30 2 1 2 3
M  V30 3 1 2 4
M  V30 4 1 3 5
M  V30 5 2 4 6
M  V30 6 1 4 7
M  V30 7 1 6 8
M  V30 8 2 7 9
M  V30 9 1 8 10
M  V30 10 2 8 11
M  V30 11 1 10 12
M  V30 12 2 12 13
M  V30 13 1 12 14
M  V30 14 1 14 15
M  V30 15 1 15 16
M  V30 16 1 15 17
M  V30 17 1 15 18
M  V30 18 1 16 19
M  V30 19 2 19 20
M  V30 20 1 19 21
M  V30 21 1 9 11
M  V30 END BOND
M  V30 END CTAB
M  END
>  <Structure No>
411

>  <Catalog ID>
Z169864344

>  <MW (desalted)>
292.330

>  <ClogP>
1.129

>  <HBD>
3

>  <TPSA>
95.500

>  <RotBonds>
6

>  <Target>
Poly [ADP-ribose] polymerase-1

>  <fromRegid>
CHEMBL3414770

>  <Similarity>
0.88

$$$$
Compound 412
Actelion Java MolfileCreator 2.0

  0  0  0  0  0  0              0 V3000
M  V30 BEGIN CTAB
M  V30 COUNTS 22 23 0 0 0
M  V30 BEGIN ATOM
M  V30 1 Cl 0.0 0.0 0.0 0
M  V30 2 S 5.3897 0.1891 0.0 0
M  V30 3 O 6.879 0.2009 0.0 0
M  V30 4 O 3.8768 0.2009 0.0 0
M  V30 5 N 5.3779 -1.3001 0.0 0
M  V30 6 C 5.3779 1.702 0.0 0
M  V30 7 C 6.5835 -2.1748 0.0 0
M  V30 8 C 4.1487 -2.1748 0.0 0
M  V30 9 C 6.6663 2.4584 0.0 0
M  V30 10 C 4.0659 2.4584 0.0 0
M  V30 11 C 6.1107 -3.5931 0.0 0 CFG=2
M  V30 12 C 4.5978 -3.5931 0.0 0
M  V30 13 C 6.6544 3.9714 0.0 0
M  V30 14 C 7.9546 1.7138 0.0 0
M  V30 15 C 4.0541 3.9714 0.0 0
M  V30 16 C 6.9854 -4.7987 0.0 0
M  V30 17 C 7.9428 4.7278 0.0 0
M  V30 18 C 5.3424 4.7278 0.0 0
M  V30 19 C 9.2429 2.4703 0.0 0
M  V30 20 N 6.3589 -6.158 0.0 0
M  V30 21 N 9.2311 3.995 0.0 0
M  V30 22 C 7.2336 -7.3636 0.0 0
M  V30 END ATOM
M  V30 BEGIN BOND
M  V30 1 2 2 3
M  V30 2 2 2 4
M  V30 3 1 2 5
M  V30 4 1 2 6
M  V30 5 1 5 7
M  V30 6 1 5 8
M  V30 7 1 6 9
M  V30 8 2 6 10
M  V30 9 1 7 11
M  V30 10 1 8 12
M  V30 11 1 9 13
M  V30 12 2 9 14
M  V30 13 1 10 15
M  V30 14 1 11 16 CFG=1
M  V30 15 2 13 17
M  V30 16 1 13 18
M  V30 17 1 14 19
M  V30 18 1 16 20
M  V30 19 1 17 21
M  V30 20 1 20 22
M  V30 21 1 11 12
M  V30 22 2 15 18
M  V30 23 2 19 21
M  V30 END BOND
M  V30 BEGIN COLLECTION
M  V30 MDLV30/STERAC1 ATOMS=(1 11)
M  V30 END COLLECTION
M  V30 END CTAB
M  END
>  <Structure No>
412

>  <Catalog ID>
Z1491299765

>  <MW (desalted)>
305.395

>  <ClogP>
0.539

>  <HBD>
1

>  <TPSA>
62.300

>  <RotBonds>
3

>  <Target>
Serine/threonine-protein kinase Chk1

>  <fromRegid>
CHEMBL2420922

>  <Similarity>
0.9

$$$$
Compound 413
Actelion Java MolfileCreator 2.0

  0  0  0  0  0  0              0 V3000
M  V30 BEGIN CTAB
M  V30 COUNTS 22 22 0 0 0
M  V30 BEGIN ATOM
M  V30 1 Cl 0.0 0.0 0.0 0
M  V30 2 S 8.1234 -0.0944 0.0 0
M  V30 3 O 9.6111 -0.0826 0.0 0
M  V30 4 O 6.6121 -0.0826 0.0 0
M  V30 5 N 8.1116 -1.5821 0.0 0
M  V30 6 C 8.1116 1.4168 0.0 0
M  V30 7 C 6.801 -2.3142 0.0 0 CFG=2
M  V30 8 C 9.3986 2.1725 0.0 0
M  V30 9 C 6.801 2.1725 0.0 0
M  V30 10 C 5.4904 -1.5585 0.0 0
M  V30 11 C 6.7892 -3.8019 0.0 0
M  V30 12 C 9.3868 3.6838 0.0 0
M  V30 13 C 10.6856 1.4404 0.0 0
M  V30 14 C 6.7892 3.6838 0.0 0
M  V30 15 N 4.1798 -2.2906 0.0 0
M  V30 16 C 5.4786 -4.5458 0.0 0
M  V30 17 C 10.6738 4.4395 0.0 0
M  V30 18 C 8.0762 4.4395 0.0 0
M  V30 19 C 11.9726 2.1961 0.0 0
M  V30 20 C 5.4668 -6.0335 0.0 0
M  V30 21 C 4.1679 -3.7901 0.0 0
M  V30 22 N 11.9608 3.7075 0.0 0
M  V30 END ATOM
M  V30 BEGIN BOND
M  V30 1 2 2 3
M  V30 2 2 2 4
M  V30 3 1 2 5
M  V30 4 1 2 6
M  V30 5 1 7 5 CFG=1
M  V30 6 1 6 8
M  V30 7 2 6 9
M  V30 8 1 7 10
M  V30 9 1 7 11
M  V30 10 1 8 12
M  V30 11 2 8 13
M  V30 12 1 9 14
M  V30 13 1 10 15
M  V30 14 1 11 16
M  V30 15 2 12 17
M  V30 16 1 12 18
M  V30 17 1 13 19
M  V30 18 1 16 20
M  V30 19 1 16 21
M  V30 20 1 17 22
M  V30 21 2 14 18
M  V30 22 2 19 22
M  V30 END BOND
M  V30 BEGIN COLLECTION
M  V30 MDLV30/STERAC1 ATOMS=(1 7)
M  V30 END COLLECTION
M  V30 END CTAB
M  END
>  <Structure No>
413

>  <Catalog ID>
Z1491315233

>  <MW (desalted)>
307.411

>  <ClogP>
2.669

>  <HBD>
2

>  <TPSA>
85.080

>  <RotBonds>
5

>  <Target>
CHK2

>  <fromRegid>


>  <Similarity>


$$$$
Compound 414
Actelion Java MolfileCreator 2.0

  0  0  0  0  0  0              0 V3000
M  V30 BEGIN CTAB
M  V30 COUNTS 21 23 0 0 0
M  V30 BEGIN ATOM
M  V30 1 O 0.0 0.0 0.0 0
M  V30 2 C -0.0118 -1.4879 0.0 0
M  V30 3 N -1.3226 -2.2201 0.0 0
M  V30 4 C 1.2753 -2.2201 0.0 0
M  V30 5 C -2.6334 -1.4643 0.0 0
M  V30 6 C 2.5625 -1.4643 0.0 0
M  V30 7 C 1.2635 -3.708 0.0 0
M  V30 8 C -3.9442 -2.1965 0.0 0
M  V30 9 C 3.8497 -2.1965 0.0 0
M  V30 10 C 2.5507 -4.452 0.0 0
M  V30 11 N -5.255 -1.4407 0.0 0
M  V30 12 C 3.8379 -3.6844 0.0 0
M  V30 13 C -5.4203 0.059 0.0 0
M  V30 14 C -6.6367 -2.0429 0.0 0
M  V30 15 C -6.8965 0.3778 0.0 0
M  V30 16 C -4.4284 1.1809 0.0 0
M  V30 17 N -7.6523 -0.9211 0.0 0
M  V30 18 C -6.9555 -3.4955 0.0 0
M  V30 19 C -7.3689 1.8186 0.0 0
M  V30 20 C -4.9007 2.6216 0.0 0
M  V30 21 C -6.3769 2.9404 0.0 0
M  V30 END ATOM
M  V30 BEGIN BOND
M  V30 1 2 1 2
M  V30 2 1 2 3
M  V30 3 1 2 4
M  V30 4 1 3 5
M  V30 5 2 4 6
M  V30 6 1 4 7
M  V30 7 1 5 8
M  V30 8 1 6 9
M  V30 9 2 7 10
M  V30 10 1 8 11
M  V30 11 2 9 12
M  V30 12 1 11 13
M  V30 13 1 11 14
M  V30 14 2 13 15
M  V30 15 1 13 16
M  V30 16 2 14 17
M  V30 17 1 14 18
M  V30 18 1 15 19
M  V30 19 2 16 20
M  V30 20 2 19 21
M  V30 21 1 10 12
M  V30 22 1 15 17
M  V30 23 1 20 21
M  V30 END BOND
M  V30 END CTAB
M  END
>  <Structure No>
414

>  <Catalog ID>
Z102413326

>  <MW (desalted)>
279.336

>  <ClogP>
2.684

>  <HBD>
1

>  <TPSA>
46.920

>  <RotBonds>
4

>  <Target>
Poly [ADP-ribose] polymerase-1

>  <fromRegid>
CHEMBL294060

>  <Similarity>
0.85

$$$$
Compound 415
Actelion Java MolfileCreator 2.0

  0  0  0  0  0  0              0 V3000
M  V30 BEGIN CTAB
M  V30 COUNTS 21 23 0 0 0
M  V30 BEGIN ATOM
M  V30 1 O 0.0 0.0 0.0 0
M  V30 2 C 0.4488 1.4409 0.0 0
M  V30 3 N -0.4488 2.6692 0.0 0
M  V30 4 C 1.8661 1.9133 0.0 0
M  V30 5 C 0.4251 3.8976 0.0 0
M  V30 6 C -1.9606 2.681 0.0 0
M  V30 7 C 1.8543 3.4251 0.0 0
M  V30 8 C 3.1535 1.1692 0.0 0
M  V30 9 O -0.0472 5.3385 0.0 0
M  V30 10 C 3.1417 4.1929 0.0 0
M  V30 11 C 4.4409 1.937 0.0 0
M  V30 12 C 4.4291 3.4606 0.0 0
M  V30 13 N 5.7283 1.1929 0.0 0
M  V30 14 C 7.0157 1.9606 0.0 0
M  V30 15 O 7.0039 3.4724 0.0 0
M  V30 16 C 8.3031 1.2165 0.0 0
M  V30 17 C 9.5905 1.9842 0.0 0
M  V30 18 C 8.2913 -0.2716 0.0 0
M  V30 19 C 10.8779 1.2401 0.0 0
M  V30 20 C 9.5787 -1.0157 0.0 0
M  V30 21 C 10.8661 -0.248 0.0 0
M  V30 END ATOM
M  V30 BEGIN BOND
M  V30 1 2 1 2
M  V30 2 1 2 3
M  V30 3 1 2 4
M  V30 4 1 3 5
M  V30 5 1 3 6
M  V30 6 2 4 7
M  V30 7 1 4 8
M  V30 8 2 5 9
M  V30 9 1 7 10
M  V30 10 2 8 11
M  V30 11 2 10 12
M  V30 12 1 11 13
M  V30 13 1 13 14
M  V30 14 2 14 15
M  V30 15 1 14 16
M  V30 16 2 16 17
M  V30 17 1 16 18
M  V30 18 1 17 19
M  V30 19 2 18 20
M  V30 20 2 19 21
M  V30 21 1 5 7
M  V30 22 1 11 12
M  V30 23 1 20 21
M  V30 END BOND
M  V30 END CTAB
M  END
>  <Structure No>
415

>  <Catalog ID>
Z27627050

>  <MW (desalted)>
280.278

>  <ClogP>
2.491

>  <HBD>
1

>  <TPSA>
66.480

>  <RotBonds>
2

>  <Target>
Poly [ADP-ribose] polymerase-1

>  <fromRegid>
CHEMBL589506

>  <Similarity>
0.87

$$$$
Compound 416
Actelion Java MolfileCreator 2.0

  0  0  0  0  0  0              0 V3000
M  V30 BEGIN CTAB
M  V30 COUNTS 21 23 0 0 0
M  V30 BEGIN ATOM
M  V30 1 O 0.0 0.0 0.0 0
M  V30 2 C -1.0169 1.1233 0.0 0
M  V30 3 N -2.495 0.8277 0.0 0
M  V30 4 C -0.5675 2.5659 0.0 0
M  V30 5 C -2.968 -0.5912 0.0 0
M  V30 6 N -1.4662 3.7957 0.0 0
M  V30 7 C 0.8513 3.0389 0.0 0
M  V30 8 C -1.9747 -1.6909 0.0 0
M  V30 9 C -4.4461 -0.8868 0.0 0
M  V30 10 N -0.5912 5.0255 0.0 0
M  V30 11 C 0.8395 4.5525 0.0 0
M  V30 12 C 2.1402 2.294 0.0 0
M  V30 13 C -2.4477 -3.1099 0.0 0
M  V30 14 C -4.9191 -2.3058 0.0 0
M  V30 15 C 2.1284 5.3211 0.0 0
M  V30 16 C 3.4291 3.0626 0.0 0
M  V30 17 O -1.4544 -4.2096 0.0 0
M  V30 18 C -3.9258 -3.4055 0.0 0
M  V30 19 C 3.4173 4.5761 0.0 0
M  V30 20 O -4.3988 -4.8245 0.0 0
M  V30 21 C -3.4055 -5.9242 0.0 0
M  V30 END ATOM
M  V30 BEGIN BOND
M  V30 1 2 1 2
M  V30 2 1 2 3
M  V30 3 1 2 4
M  V30 4 1 3 5
M  V30 5 2 4 6
M  V30 6 1 4 7
M  V30 7 2 5 8
M  V30 8 1 5 9
M  V30 9 1 6 10
M  V30 10 2 7 11
M  V30 11 1 7 12
M  V30 12 1 8 13
M  V30 13 2 9 14
M  V30 14 1 11 15
M  V30 15 2 12 16
M  V30 16 1 13 17
M  V30 17 2 13 18
M  V30 18 2 15 19
M  V30 19 1 18 20
M  V30 20 1 20 21
M  V30 21 1 10 11
M  V30 22 1 14 18
M  V30 23 1 16 19
M  V30 END BOND
M  V30 END CTAB
M  END
>  <Structure No>
416

>  <Catalog ID>
Z32805840

>  <MW (desalted)>
283.282

>  <ClogP>
2.200

>  <HBD>
3

>  <TPSA>
87.240

>  <RotBonds>
3

>  <Target>
Serine/threonine-protein kinase Chk2

>  <fromRegid>
CHEMBL2007002

>  <Similarity>
0.9

$$$$
Compound 417
Actelion Java MolfileCreator 2.0

  0  0  0  0  0  0              0 V3000
M  V30 BEGIN CTAB
M  V30 COUNTS 21 21 0 0 0
M  V30 BEGIN ATOM
M  V30 1 O 0.0 0.0 0.0 0
M  V30 2 C -1.3123 -0.733 0.0 0
M  V30 3 N -2.6247 0.0236 0.0 0
M  V30 4 C -1.3242 -2.2227 0.0 0
M  V30 5 C -2.6366 1.537 0.0 0
M  V30 6 C -3.9371 -0.7094 0.0 0
M  V30 7 C -0.0354 -2.9558 0.0 0
M  V30 8 C -2.6366 -2.9558 0.0 0
M  V30 9 C -0.0472 -4.4455 0.0 0
M  V30 10 C -2.6484 -4.4455 0.0 0
M  V30 11 C -1.3596 -5.1786 0.0 0
M  V30 12 N -1.3715 -6.6683 0.0 0
M  V30 13 C -2.6839 -7.4132 0.0 0
M  V30 14 O -3.9963 -6.6565 0.0 0
M  V30 15 C -2.6957 -8.903 0.0 0
M  V30 16 C -4.0081 -9.6478 0.0 0
M  V30 17 C -5.3205 -10.3809 0.0 0
M  V30 18 C -4.7648 -8.3354 0.0 0
M  V30 19 C -3.2632 -10.9366 0.0 0
M  V30 20 O -5.3323 -11.8706 0.0 0
M  V30 21 O -6.6329 -9.6242 0.0 0
M  V30 END ATOM
M  V30 BEGIN BOND
M  V30 1 2 1 2
M  V30 2 1 2 3
M  V30 3 1 2 4
M  V30 4 1 3 5
M  V30 5 1 3 6
M  V30 6 2 4 7
M  V30 7 1 4 8
M  V30 8 1 7 9
M  V30 9 2 8 10
M  V30 10 2 9 11
M  V30 11 1 11 12
M  V30 12 1 12 13
M  V30 13 2 13 14
M  V30 14 1 13 15
M  V30 15 1 15 16
M  V30 16 1 16 17
M  V30 17 1 16 18
M  V30 18 1 16 19
M  V30 19 2 17 20
M  V30 20 1 17 21
M  V30 21 1 10 11
M  V30 END BOND
M  V30 END CTAB
M  END
>  <Structure No>
417

>  <Catalog ID>
Z1213002382

>  <MW (desalted)>
292.330

>  <ClogP>
0.586

>  <HBD>
2

>  <TPSA>
86.710

>  <RotBonds>
5

>  <Target>
Poly [ADP-ribose] polymerase-1

>  <fromRegid>
CHEMBL3414766

>  <Similarity>
0.88

$$$$
Compound 418
Actelion Java MolfileCreator 2.0

  0  0  0  0  0  0              0 V3000
M  V30 BEGIN CTAB
M  V30 COUNTS 21 23 0 0 0
M  V30 BEGIN ATOM
M  V30 1 S 0.0 0.0 0.0 0
M  V30 2 C 0.1421 -1.4802 0.0 0
M  V30 3 C -1.4802 0.3197 0.0 0
M  V30 4 N -1.2434 -2.0842 0.0 0
M  V30 5 C 1.4328 -2.2263 0.0 0
M  V30 6 C -2.2381 -0.971 0.0 0
M  V30 7 N 1.421 -3.7184 0.0 0
M  V30 8 C -3.7421 -1.1131 0.0 0
M  V30 9 C 2.7118 -4.4526 0.0 0
M  V30 10 O -4.3697 -2.475 0.0 0
M  V30 11 O -4.6421 0.1184 0.0 0
M  V30 12 O 4.0026 -3.6947 0.0 0
M  V30 13 C 2.7 -5.9447 0.0 0
M  V30 14 C 1.3855 -6.6789 0.0 0
M  V30 15 C 3.9907 -6.6789 0.0 0
M  V30 16 N -0.0592 -6.2052 0.0 0
M  V30 17 C 1.3736 -8.171 0.0 0
M  V30 18 C 3.9789 -8.171 0.0 0
M  V30 19 C -0.9592 -7.4131 0.0 0
M  V30 20 C 2.6644 -8.9052 0.0 0
M  V30 21 C -0.071 -8.621 0.0 0
M  V30 END ATOM
M  V30 BEGIN BOND
M  V30 1 1 1 2
M  V30 2 1 1 3
M  V30 3 2 2 4
M  V30 4 1 2 5
M  V30 5 2 3 6
M  V30 6 1 5 7
M  V30 7 1 6 8
M  V30 8 1 7 9
M  V30 9 2 8 10
M  V30 10 1 8 11
M  V30 11 2 9 12
M  V30 12 1 9 13
M  V30 13 2 13 14
M  V30 14 1 13 15
M  V30 15 1 14 16
M  V30 16 1 14 17
M  V30 17 2 15 18
M  V30 18 1 16 19
M  V30 19 2 17 20
M  V30 20 1 17 21
M  V30 21 1 4 6
M  V30 22 1 18 20
M  V30 23 2 19 21
M  V30 END BOND
M  V30 END CTAB
M  END
>  <Structure No>
418

>  <Catalog ID>
Z1274460559

>  <MW (desalted)>
301.320

>  <ClogP>
1.700

>  <HBD>
3

>  <TPSA>
95.080

>  <RotBonds>
4

>  <Target>
ATM

>  <fromRegid>


>  <Similarity>


$$$$
Compound 419
Actelion Java MolfileCreator 2.0

  0  0  0  0  0  0              0 V3000
M  V30 BEGIN CTAB
M  V30 COUNTS 21 22 0 0 0
M  V30 BEGIN ATOM
M  V30 1 Cl 0.0 0.0 0.0 0
M  V30 2 C 1.4789 -0.1419 0.0 0
M  V30 3 C 2.0823 -1.5025 0.0 0
M  V30 4 C 2.3544 1.0884 0.0 0
M  V30 5 F 1.1831 -2.7093 0.0 0
M  V30 6 C 3.5612 -1.6445 0.0 0
M  V30 7 C 3.8333 0.9465 0.0 0
M  V30 8 C 4.4367 -0.414 0.0 0
M  V30 9 Cl 4.7088 2.1769 0.0 0
M  V30 10 C 5.9156 -0.556 0.0 0
M  V30 11 O 6.519 -1.9166 0.0 0
M  V30 12 N 6.7912 0.6743 0.0 0
M  V30 13 C 8.2701 0.5324 0.0 0
M  V30 14 C 9.1456 1.7628 0.0 0
M  V30 15 S 10.6364 1.7747 0.0 0
M  V30 16 N 8.6724 3.2063 0.0 0
M  V30 17 C 11.086 3.2181 0.0 0
M  V30 18 C 9.8792 4.1054 0.0 0
M  V30 19 C 9.8673 5.6199 0.0 0
M  V30 20 O 8.554 6.3771 0.0 0
M  V30 21 O 11.1569 6.3771 0.0 0
M  V30 END ATOM
M  V30 BEGIN BOND
M  V30 1 1 1 2
M  V30 2 2 2 3
M  V30 3 1 2 4
M  V30 4 1 3 5
M  V30 5 1 3 6
M  V30 6 2 4 7
M  V30 7 2 6 8
M  V30 8 1 7 9
M  V30 9 1 8 10
M  V30 10 2 10 11
M  V30 11 1 10 12
M  V30 12 1 12 13
M  V30 13 1 13 14
M  V30 14 1 14 15
M  V30 15 2 14 16
M  V30 16 1 15 17
M  V30 17 1 16 18
M  V30 18 1 18 19
M  V30 19 2 19 20
M  V30 20 1 19 21
M  V30 21 1 7 8
M  V30 22 2 17 18
M  V30 END BOND
M  V30 END CTAB
M  END
>  <Structure No>
419

>  <Catalog ID>
Z1274460621

>  <MW (desalted)>
349.165

>  <ClogP>
2.553

>  <HBD>
2

>  <TPSA>
79.290

>  <RotBonds>
4

>  <Target>
ATM

>  <fromRegid>


>  <Similarity>


$$$$
Compound 420
Actelion Java MolfileCreator 2.0

  0  0  0  0  0  0              0 V3000
M  V30 BEGIN CTAB
M  V30 COUNTS 21 23 0 0 0
M  V30 BEGIN ATOM
M  V30 1 S 0.0 0.0 0.0 0
M  V30 2 C -1.2249 -0.8716 0.0 0
M  V30 3 C -0.4711 1.437 0.0 0
M  V30 4 N -2.4499 0.0235 0.0 0
M  V30 5 C -1.2367 -2.3557 0.0 0
M  V30 6 C -1.9788 1.4487 0.0 0
M  V30 7 N -2.5442 -3.0978 0.0 0
M  V30 8 C -2.874 2.6737 0.0 0
M  V30 9 C -2.5559 -4.5819 0.0 0
M  V30 10 O -4.3699 2.5324 0.0 0
M  V30 11 O -2.2733 4.0518 0.0 0
M  V30 12 O -1.2721 -5.3122 0.0 0
M  V30 13 C -3.8634 -5.3122 0.0 0
M  V30 14 C -5.1708 -4.5583 0.0 0
M  V30 15 C -3.8752 -6.7963 0.0 0
M  V30 16 C -6.4783 -5.2886 0.0 0
M  V30 17 C -5.1826 -7.5266 0.0 0
M  V30 18 C -6.49 -6.7727 0.0 0
M  V30 19 C -7.9153 -4.8175 0.0 0
M  V30 20 C -7.9271 -7.2203 0.0 0
M  V30 21 C -8.8105 -6.0189 0.0 0
M  V30 END ATOM
M  V30 BEGIN BOND
M  V30 1 1 1 2
M  V30 2 1 1 3
M  V30 3 2 2 4
M  V30 4 1 2 5
M  V30 5 2 3 6
M  V30 6 1 5 7
M  V30 7 1 6 8
M  V30 8 1 7 9
M  V30 9 2 8 10
M  V30 10 1 8 11
M  V30 11 2 9 12
M  V30 12 1 9 13
M  V30 13 2 13 14
M  V30 14 1 13 15
M  V30 15 1 14 16
M  V30 16 2 15 17
M  V30 17 2 16 18
M  V30 18 1 16 19
M  V30 19 1 18 20
M  V30 20 1 19 21
M  V30 21 1 4 6
M  V30 22 1 17 18
M  V30 23 1 20 21
M  V30 END BOND
M  V30 END CTAB
M  END
>  <Structure No>
420

>  <Catalog ID>
Z1274461585

>  <MW (desalted)>
302.348

>  <ClogP>
2.531

>  <HBD>
2

>  <TPSA>
79.290

>  <RotBonds>
4

>  <Target>
ATM

>  <fromRegid>


>  <Similarity>


$$$$
Compound 421
Actelion Java MolfileCreator 2.0

  0  0  0  0  0  0              0 V3000
M  V30 BEGIN CTAB
M  V30 COUNTS 21 23 0 0 0
M  V30 BEGIN ATOM
M  V30 1 Cl 0.0 0.0 0.0 0
M  V30 2 C -1.0136 1.1197 0.0 0
M  V30 3 C -0.5657 2.5576 0.0 0
M  V30 4 C -2.4869 0.825 0.0 0
M  V30 5 C -1.5794 3.6774 0.0 0
M  V30 6 C 0.8839 2.8759 0.0 0
M  V30 7 C -3.5006 1.9447 0.0 0
M  V30 8 C -3.0527 3.3827 0.0 0
M  V30 9 N 1.3318 4.3138 0.0 0
M  V30 10 C 0.4361 5.5396 0.0 0
M  V30 11 C 2.7462 4.7853 0.0 0
M  V30 12 N 1.3083 6.7655 0.0 0
M  V30 13 N -1.0725 5.5514 0.0 0
M  V30 14 C 4.031 4.0545 0.0 0
M  V30 15 C 2.7344 6.294 0.0 0
M  V30 16 O 4.0192 2.5694 0.0 0
M  V30 17 N 5.3157 4.8089 0.0 0
M  V30 18 N 4.0192 7.0483 0.0 0
M  V30 19 C 5.3039 6.3176 0.0 0
M  V30 20 C 4.0074 8.557 0.0 0
M  V30 21 O 6.5887 7.0719 0.0 0
M  V30 END ATOM
M  V30 BEGIN BOND
M  V30 1 1 1 2
M  V30 2 2 2 3
M  V30 3 1 2 4
M  V30 4 1 3 5
M  V30 5 1 3 6
M  V30 6 2 4 7
M  V30 7 2 5 8
M  V30 8 1 6 9
M  V30 9 1 9 10
M  V30 10 1 9 11
M  V30 11 2 10 12
M  V30 12 1 10 13
M  V30 13 1 11 14
M  V30 14 2 11 15
M  V30 15 2 14 16
M  V30 16 1 14 17
M  V30 17 1 15 18
M  V30 18 1 17 19
M  V30 19 1 18 20
M  V30 20 2 19 21
M  V30 21 1 7 8
M  V30 22 1 12 15
M  V30 23 1 18 19
M  V30 END BOND
M  V30 END CTAB
M  END
>  <Structure No>
421

>  <Catalog ID>
Z223813986

>  <MW (desalted)>
305.720

>  <ClogP>
1.299

>  <HBD>
2

>  <TPSA>
93.250

>  <RotBonds>
2

>  <Target>
parp1

>  <fromRegid>


>  <Similarity>


$$$$
Compound 422
Actelion Java MolfileCreator 2.0

  0  0  0  0  0  0              0 V3000
M  V30 BEGIN CTAB
M  V30 COUNTS 21 23 0 0 0
M  V30 BEGIN ATOM
M  V30 1 S 0.0 0.0 0.0 0
M  V30 2 C -1.3135 0.7573 0.0 0
M  V30 3 C 1.2899 0.7573 0.0 0
M  V30 4 N -1.3254 2.2721 0.0 0
M  V30 5 N -2.6271 0.0236 0.0 0
M  V30 6 C 2.5798 0.0236 0.0 0
M  V30 7 C -2.6389 3.0294 0.0 0
M  V30 8 C -3.9407 0.781 0.0 0
M  V30 9 N 3.8697 0.781 0.0 0
M  V30 10 N 2.5679 -1.4674 0.0 0
M  V30 11 N -2.6508 4.5442 0.0 0
M  V30 12 C -3.9525 2.2957 0.0 0
M  V30 13 C -5.2542 0.0473 0.0 0
M  V30 14 C 5.1596 0.0473 0.0 0
M  V30 15 C 3.8578 -2.2129 0.0 0
M  V30 16 C 5.1477 -1.4437 0.0 0
M  V30 17 C 6.4495 0.8047 0.0 0
M  V30 18 O 3.846 -3.704 0.0 0
M  V30 19 C 6.4376 -2.1892 0.0 0
M  V30 20 C 7.7394 0.071 0.0 0
M  V30 21 C 7.7275 -1.4319 0.0 0
M  V30 END ATOM
M  V30 BEGIN BOND
M  V30 1 1 1 2
M  V30 2 1 1 3
M  V30 3 2 2 4
M  V30 4 1 2 5
M  V30 5 1 3 6
M  V30 6 1 4 7
M  V30 7 2 5 8
M  V30 8 2 6 9
M  V30 9 1 6 10
M  V30 10 1 7 11
M  V30 11 2 7 12
M  V30 12 1 8 13
M  V30 13 1 9 14
M  V30 14 1 10 15
M  V30 15 2 14 16
M  V30 16 1 14 17
M  V30 17 2 15 18
M  V30 18 1 16 19
M  V30 19 2 17 20
M  V30 20 2 19 21
M  V30 21 1 8 12
M  V30 22 1 15 16
M  V30 23 1 20 21
M  V30 END BOND
M  V30 END CTAB
M  END
>  <Structure No>
422

>  <Catalog ID>
Z74373015

>  <MW (desalted)>
299.351

>  <ClogP>
1.108

>  <HBD>
2

>  <TPSA>
93.260

>  <RotBonds>
3

>  <Target>
parp10, parp3

>  <fromRegid>


>  <Similarity>


$$$$
Compound 423
Actelion Java MolfileCreator 2.0

  0  0  0  0  0  0              0 V3000
M  V30 BEGIN CTAB
M  V30 COUNTS 26 27 0 0 0
M  V30 BEGIN ATOM
M  V30 1 Cl 0.0 0.0 0.0 0
M  V30 2 C -0.0117 1.508 0.0 0
M  V30 3 C -1.3195 2.2621 0.0 0
M  V30 4 C 1.2724 2.2621 0.0 0
M  V30 5 O -2.6273 1.5198 0.0 0
M  V30 6 C -1.3313 3.7701 0.0 0
M  V30 7 C 1.2606 3.7701 0.0 0
M  V30 8 C 2.427 1.3431 0.0 0
M  V30 9 O -2.6391 4.5242 0.0 0
M  V30 10 C -0.0471 4.5242 0.0 0
M  V30 11 C 2.4152 4.7127 0.0 0 CFG=2
M  V30 12 C 3.8762 1.6847 0.0 0
M  V30 13 C 2.0735 6.1854 0.0 0
M  V30 14 C 3.8644 4.3946 0.0 0
M  V30 15 N 4.5124 3.0396 0.0 0
M  V30 16 C 3.1575 7.2104 0.0 0
M  V30 17 C 0.6362 6.6331 0.0 0
M  V30 18 C 2.8158 8.6831 0.0 0
M  V30 19 C 0.2945 8.1058 0.0 0
M  V30 20 C 1.3784 9.1308 0.0 0
M  V30 21 O 1.0367 10.6035 0.0 0
M  V30 22 S -7.6345 4.6184 0.0 0
M  V30 23 O -7.6463 6.1265 0.0 0
M  V30 24 O -6.15 4.6302 0.0 0
M  V30 25 O -9.1426 4.6302 0.0 0
M  V30 26 C -7.6463 3.1339 0.0 0
M  V30 END ATOM
M  V30 BEGIN BOND
M  V30 1 1 1 2
M  V30 2 2 2 3
M  V30 3 1 2 4
M  V30 4 1 3 5
M  V30 5 1 3 6
M  V30 6 2 4 7
M  V30 7 1 4 8
M  V30 8 1 6 9
M  V30 9 2 6 10
M  V30 10 1 7 11
M  V30 11 1 8 12
M  V30 12 1 11 13 CFG=3
M  V30 13 1 11 14
M  V30 14 1 12 15
M  V30 15 2 13 16
M  V30 16 1 13 17
M  V30 17 1 16 18
M  V30 18 2 17 19
M  V30 19 2 18 20
M  V30 20 1 20 21
M  V30 21 2 22 23
M  V30 22 2 22 24
M  V30 23 1 22 25
M  V30 24 1 22 26
M  V30 25 1 7 10
M  V30 26 1 14 15
M  V30 27 1 19 20
M  V30 END BOND
M  V30 BEGIN COLLECTION
M  V30 MDLV30/STERAC1 ATOMS=(1 11)
M  V30 END COLLECTION
M  V30 END CTAB
M  END
>  <Structure No>
423

>  <Catalog ID>
Z2210694608

>  <MW (desalted)>
305.756

>  <ClogP>
2.400

>  <HBD>
4

>  <TPSA>
72.720

>  <RotBonds>
1

>  <Target>
Poly [ADP-ribose] polymerase-1

>  <fromRegid>
CHEMBL417002

>  <Similarity>
1.0

$$$$
Compound 424
Actelion Java MolfileCreator 2.0

  0  0  0  0  0  0              0 V3000
M  V30 BEGIN CTAB
M  V30 COUNTS 21 24 0 0 0
M  V30 BEGIN ATOM
M  V30 1 S 0.0 0.0 0.0 0
M  V30 2 C -1.2374 -0.8485 0.0 0
M  V30 3 C 1.1784 -0.8956 0.0 0
M  V30 4 N -2.7105 -0.4949 0.0 0
M  V30 5 C -0.8131 -2.2745 0.0 0
M  V30 6 C 0.6717 -2.298 0.0 0
M  V30 7 C 2.6634 -0.9192 0.0 0
M  V30 8 C -3.7476 -1.5791 0.0 0
M  V30 9 C -1.8502 -3.3587 0.0 0
M  V30 10 C 1.8502 -3.1937 0.0 0
M  V30 11 C 3.0876 -2.3452 0.0 0
M  V30 12 N -3.3233 -3.0051 0.0 0
M  V30 13 C -5.2207 -1.2256 0.0 0
M  V30 14 O -1.4259 -4.7846 0.0 0
M  V30 15 N -5.6685 0.2239 0.0 0
M  V30 16 C -7.1652 0.4713 0.0 0
M  V30 17 C -4.5725 1.2492 0.0 0
M  V30 18 C -7.9195 1.7795 0.0 0
M  V30 19 C -4.6904 2.7576 0.0 0
M  V30 20 C -7.3773 3.1819 0.0 0
M  V30 21 C -5.9396 3.6179 0.0 0
M  V30 END ATOM
M  V30 BEGIN BOND
M  V30 1 1 1 2
M  V30 2 1 1 3
M  V30 3 1 2 4
M  V30 4 2 2 5
M  V30 5 2 3 6
M  V30 6 1 3 7
M  V30 7 2 4 8
M  V30 8 1 5 9
M  V30 9 1 6 10
M  V30 10 1 7 11
M  V30 11 1 8 12
M  V30 12 1 8 13
M  V30 13 2 9 14
M  V30 14 1 13 15
M  V30 15 1 15 16
M  V30 16 1 15 17
M  V30 17 1 16 18
M  V30 18 1 17 19
M  V30 19 1 18 20
M  V30 20 1 19 21
M  V30 21 1 5 6
M  V30 22 1 9 12
M  V30 23 1 10 11
M  V30 24 1 20 21
M  V30 END BOND
M  V30 END CTAB
M  END
>  <Structure No>
424

>  <Catalog ID>
Z44490247

>  <MW (desalted)>
303.422

>  <ClogP>
2.723

>  <HBD>
1

>  <TPSA>
44.700

>  <RotBonds>
2

>  <Target>
Poly [ADP-ribose] polymerase-1

>  <fromRegid>
CHEMBL3616846

>  <Similarity>
0.94

$$$$
Compound 425
Actelion Java MolfileCreator 2.0

  0  0  0  0  0  0              0 V3000
M  V30 BEGIN CTAB
M  V30 COUNTS 21 23 0 0 0
M  V30 BEGIN ATOM
M  V30 1 O 0.0 0.0 0.0 0
M  V30 2 N -1.3117 0.7681 0.0 0 CHG=1
M  V30 3 O -2.6234 0.0236 0.0 0 CHG=-1
M  V30 4 C -1.3235 2.2807 0.0 0
M  V30 5 C -0.0354 3.0489 0.0 0
M  V30 6 C -2.6352 3.0489 0.0 0
M  V30 7 C -0.0472 4.5615 0.0 0
M  V30 8 C -2.6471 4.5615 0.0 0
M  V30 9 N 1.2408 5.3296 0.0 0
M  V30 10 C -1.359 5.3296 0.0 0
M  V30 11 C 2.5289 4.5851 0.0 0
M  V30 12 N 2.5171 3.0961 0.0 0
M  V30 13 C 3.817 5.3533 0.0 0
M  V30 14 C 3.8052 2.3516 0.0 0
M  V30 15 C 5.1051 4.6088 0.0 0
M  V30 16 O 3.7934 0.8626 0.0 0
M  V30 17 C 5.0933 3.1198 0.0 0
M  V30 18 C 6.3932 5.3769 0.0 0
M  V30 19 C 6.3814 2.3753 0.0 0
M  V30 20 C 7.6813 4.6324 0.0 0
M  V30 21 C 7.6695 3.1434 0.0 0
M  V30 END ATOM
M  V30 BEGIN BOND
M  V30 1 2 1 2
M  V30 2 1 2 3
M  V30 3 1 2 4
M  V30 4 2 4 5
M  V30 5 1 4 6
M  V30 6 1 5 7
M  V30 7 2 6 8
M  V30 8 1 7 9
M  V30 9 2 7 10
M  V30 10 1 9 11
M  V30 11 1 11 12
M  V30 12 2 11 13
M  V30 13 1 12 14
M  V30 14 1 13 15
M  V30 15 2 14 16
M  V30 16 1 14 17
M  V30 17 1 15 18
M  V30 18 1 17 19
M  V30 19 2 18 20
M  V30 20 2 19 21
M  V30 21 1 8 10
M  V30 22 2 15 17
M  V30 23 1 20 21
M  V30 END BOND
M  V30 END CTAB
M  END
>  <Structure No>
425

>  <Catalog ID>
Z1787218695

>  <MW (desalted)>
281.266

>  <ClogP>
2.870

>  <HBD>
2

>  <TPSA>
84.270

>  <RotBonds>
3

>  <Target>
parp10

>  <fromRegid>


>  <Similarity>


$$$$
Compound 426
Actelion Java MolfileCreator 2.0

  0  0  0  0  0  0              0 V3000
M  V30 BEGIN CTAB
M  V30 COUNTS 21 23 0 0 0
M  V30 BEGIN ATOM
M  V30 1 O 0.0 0.0 0.0 0
M  V30 2 C -0.0118 -1.4909 0.0 0
M  V30 3 N -1.3252 -2.2245 0.0 0
M  V30 4 C 1.2779 -2.2245 0.0 0
M  V30 5 C -1.337 -3.7154 0.0 0 CFG=2
M  V30 6 C 1.266 -3.7154 0.0 0
M  V30 7 C 2.5676 -1.4672 0.0 0
M  V30 8 N -0.0473 -4.4609 0.0 0
M  V30 9 C -2.6505 -4.4609 0.0 0
M  V30 10 C 2.5558 -4.4609 0.0 0
M  V30 11 C 3.8574 -2.2008 0.0 0
M  V30 12 C -3.9639 -3.6917 0.0 0
M  V30 13 C -2.6623 -5.9518 0.0 0
M  V30 14 C 3.8456 -3.6917 0.0 0
M  V30 15 C -5.2773 -4.4372 0.0 0
M  V30 16 C -3.9757 -6.6972 0.0 0
M  V30 17 C -5.2891 -5.9281 0.0 0
M  V30 18 C -6.6026 -6.6736 0.0 0
M  V30 19 C -7.916 -7.4072 0.0 0
M  V30 20 C -5.8689 -7.9633 0.0 0
M  V30 21 C -7.3717 -5.3601 0.0 0
M  V30 END ATOM
M  V30 BEGIN BOND
M  V30 1 2 1 2
M  V30 2 1 2 3
M  V30 3 1 2 4
M  V30 4 1 3 5
M  V30 5 2 4 6
M  V30 6 1 4 7
M  V30 7 1 5 8
M  V30 8 1 5 9 CFG=3
M  V30 9 1 6 10
M  V30 10 2 7 11
M  V30 11 2 9 12
M  V30 12 1 9 13
M  V30 13 2 10 14
M  V30 14 1 12 15
M  V30 15 2 13 16
M  V30 16 2 15 17
M  V30 17 1 17 18
M  V30 18 1 18 19
M  V30 19 1 18 20
M  V30 20 1 18 21
M  V30 21 1 6 8
M  V30 22 1 11 14
M  V30 23 1 16 17
M  V30 END BOND
M  V30 BEGIN COLLECTION
M  V30 MDLV30/STERAC1 ATOMS=(1 5)
M  V30 END COLLECTION
M  V30 END CTAB
M  END
>  <Structure No>
426

>  <Catalog ID>
Z48978226

>  <MW (desalted)>
280.364

>  <ClogP>
4.146

>  <HBD>
2

>  <TPSA>
41.130

>  <RotBonds>
2

>  <Target>
Poly [ADP-ribose] polymerase-1

>  <fromRegid>
CHEMBL3594136

>  <Similarity>
0.97

$$$$
Compound 427
Actelion Java MolfileCreator 2.0

  0  0  0  0  0  0              0 V3000
M  V30 BEGIN CTAB
M  V30 COUNTS 21 23 0 0 0
M  V30 BEGIN ATOM
M  V30 1 O 0.0 0.0 0.0 0
M  V30 2 C -0.0118 -1.4942 0.0 0
M  V30 3 N 1.2807 -2.2294 0.0 0
M  V30 4 C -1.3281 -2.2294 0.0 0
M  V30 5 C 2.5733 -1.4704 0.0 0
M  V30 6 C -1.34 -3.7236 0.0 0
M  V30 7 C -2.6444 -1.4704 0.0 0
M  V30 8 C 3.8659 -2.2057 0.0 0
M  V30 9 C -2.6563 -4.4707 0.0 0
M  V30 10 C -3.9608 -2.2057 0.0 0
M  V30 11 C 5.1585 -1.4467 0.0 0
M  V30 12 C -3.9726 -3.6999 0.0 0
M  V30 13 C -2.6682 -5.9649 0.0 0
M  V30 14 C 6.5223 -2.0515 0.0 0
M  V30 15 C 5.3008 0.0592 0.0 0
M  V30 16 C 7.5184 -0.9249 0.0 0
M  V30 17 C 6.9729 -3.4746 0.0 0
M  V30 18 N 6.7594 0.3794 0.0 0
M  V30 19 C 8.977 -1.2214 0.0 0
M  V30 20 C 8.4315 -3.771 0.0 0
M  V30 21 C 9.4276 -2.6444 0.0 0
M  V30 END ATOM
M  V30 BEGIN BOND
M  V30 1 2 1 2
M  V30 2 1 2 3
M  V30 3 1 2 4
M  V30 4 1 3 5
M  V30 5 2 4 6
M  V30 6 1 4 7
M  V30 7 1 5 8
M  V30 8 1 6 9
M  V30 9 2 7 10
M  V30 10 1 8 11
M  V30 11 2 9 12
M  V30 12 1 9 13
M  V30 13 1 11 14
M  V30 14 2 11 15
M  V30 15 2 14 16
M  V30 16 1 14 17
M  V30 17 1 15 18
M  V30 18 1 16 19
M  V30 19 2 17 20
M  V30 20 2 19 21
M  V30 21 1 10 12
M  V30 22 1 16 18
M  V30 23 1 20 21
M  V30 END BOND
M  V30 END CTAB
M  END
>  <Structure No>
427

>  <Catalog ID>
Z26395676

>  <MW (desalted)>
278.348

>  <ClogP>
3.447

>  <HBD>
2

>  <TPSA>
44.890

>  <RotBonds>
4

>  <Target>
Poly [ADP-ribose] polymerase-1

>  <fromRegid>
CHEMBL343641

>  <Similarity>
0.94

$$$$
Compound 428
Actelion Java MolfileCreator 2.0

  0  0  0  0  0  0              0 V3000
M  V30 BEGIN CTAB
M  V30 COUNTS 21 23 0 0 0
M  V30 BEGIN ATOM
M  V30 1 O 0.0 0.0 0.0 0
M  V30 2 C -0.0118 -1.4933 0.0 0
M  V30 3 N 1.28 -2.2281 0.0 0
M  V30 4 C -1.3274 -2.2281 0.0 0
M  V30 5 C 2.5719 -1.4696 0.0 0
M  V30 6 C -2.643 -1.4696 0.0 0
M  V30 7 C -1.3392 -3.7215 0.0 0
M  V30 8 C 3.8637 -2.2044 0.0 0
M  V30 9 C -3.9586 -2.2044 0.0 0
M  V30 10 C -2.6548 -4.4682 0.0 0
M  V30 11 C 5.1556 -1.4459 0.0 0
M  V30 12 C -3.9704 -3.6978 0.0 0
M  V30 13 C 6.5186 -2.0504 0.0 0
M  V30 14 C 5.2978 0.0592 0.0 0
M  V30 15 C -5.286 -4.4445 0.0 0
M  V30 16 C 7.5142 -0.9244 0.0 0
M  V30 17 C 6.969 -3.4726 0.0 0
M  V30 18 N 6.7556 0.3792 0.0 0
M  V30 19 C 8.972 -1.2207 0.0 0
M  V30 20 C 8.4268 -3.7689 0.0 0
M  V30 21 C 9.4224 -2.643 0.0 0
M  V30 END ATOM
M  V30 BEGIN BOND
M  V30 1 2 1 2
M  V30 2 1 2 3
M  V30 3 1 2 4
M  V30 4 1 3 5
M  V30 5 2 4 6
M  V30 6 1 4 7
M  V30 7 1 5 8
M  V30 8 1 6 9
M  V30 9 2 7 10
M  V30 10 1 8 11
M  V30 11 2 9 12
M  V30 12 1 11 13
M  V30 13 2 11 14
M  V30 14 1 12 15
M  V30 15 2 13 16
M  V30 16 1 13 17
M  V30 17 1 14 18
M  V30 18 1 16 19
M  V30 19 2 17 20
M  V30 20 2 19 21
M  V30 21 1 10 12
M  V30 22 1 16 18
M  V30 23 1 20 21
M  V30 END BOND
M  V30 END CTAB
M  END
>  <Structure No>
428

>  <Catalog ID>
Z26395518

>  <MW (desalted)>
278.348

>  <ClogP>
3.447

>  <HBD>
2

>  <TPSA>
44.890

>  <RotBonds>
4

>  <Target>
Poly [ADP-ribose] polymerase-1

>  <fromRegid>
CHEMBL343641

>  <Similarity>
0.92

$$$$
Compound 429
Actelion Java MolfileCreator 2.0

  0  0  0  0  0  0              0 V3000
M  V30 BEGIN CTAB
M  V30 COUNTS 21 23 0 0 0
M  V30 BEGIN ATOM
M  V30 1 O 0.0 0.0 0.0 0
M  V30 2 C -0.0117 1.5074 0.0 0
M  V30 3 C -1.3189 2.2728 0.0 0
M  V30 4 C 1.2718 2.2728 0.0 0
M  V30 5 O -2.6261 1.5309 0.0 0
M  V30 6 C -1.3307 3.7802 0.0 0
M  V30 7 C 1.26 3.7802 0.0 0
M  V30 8 C 2.5555 1.5309 0.0 0
M  V30 9 O -0.0471 4.5339 0.0 0
M  V30 10 C -2.6379 4.5339 0.0 0
M  V30 11 C 2.5437 4.5339 0.0 0
M  V30 12 O 2.5437 0.0471 0.0 0
M  V30 13 C 3.8391 2.2964 0.0 0
M  V30 14 C -2.6497 6.0414 0.0 0
M  V30 15 C -3.9451 3.8038 0.0 0
M  V30 16 C 3.8274 3.8038 0.0 0
M  V30 17 C -3.9569 6.7951 0.0 0
M  V30 18 C -5.2523 4.5575 0.0 0
M  V30 19 O 5.111 4.5575 0.0 0
M  V30 20 C -5.2641 6.0649 0.0 0
M  V30 21 O -6.5713 6.8186 0.0 0
M  V30 END ATOM
M  V30 BEGIN BOND
M  V30 1 2 1 2
M  V30 2 1 2 3
M  V30 3 1 2 4
M  V30 4 1 3 5
M  V30 5 2 3 6
M  V30 6 2 4 7
M  V30 7 1 4 8
M  V30 8 1 6 9
M  V30 9 1 6 10
M  V30 10 1 7 11
M  V30 11 1 8 12
M  V30 12 2 8 13
M  V30 13 2 10 14
M  V30 14 1 10 15
M  V30 15 2 11 16
M  V30 16 1 14 17
M  V30 17 2 15 18
M  V30 18 1 16 19
M  V30 19 2 17 20
M  V30 20 1 20 21
M  V30 21 1 7 9
M  V30 22 1 13 16
M  V30 23 1 18 20
M  V30 END BOND
M  V30 END CTAB
M  END
>  <Structure No>
429

>  <Catalog ID>
Z57183373

>  <MW (desalted)>
286.236

>  <ClogP>
2.100

>  <HBD>
4

>  <TPSA>
107.220

>  <RotBonds>
1

>  <Target>
Tankyrase-1

>  <fromRegid>
CHEMBL144625

>  <Similarity>
0.9

$$$$
Compound 430
Actelion Java MolfileCreator 2.0

  0  0  0  0  0  0              0 V3000
M  V30 BEGIN CTAB
M  V30 COUNTS 22 23 0 0 0
M  V30 BEGIN ATOM
M  V30 1 O 0.0 0.0 0.0 0
M  V30 2 C 1.2835 0.7654 0.0 0
M  V30 3 O 2.567 0.0235 0.0 0
M  V30 4 C 1.2717 2.2726 0.0 0
M  V30 5 C -0.0353 3.0263 0.0 0
M  V30 6 C 2.5553 3.0263 0.0 0
M  V30 7 N -1.3424 2.2962 0.0 0
M  V30 8 C -0.0471 4.5336 0.0 0
M  V30 9 C 2.5435 4.5336 0.0 0
M  V30 10 C -2.6495 3.0498 0.0 0
M  V30 11 C 1.2364 5.299 0.0 0
M  V30 12 O 3.827 5.299 0.0 0
M  V30 13 O -2.6612 4.5571 0.0 0
M  V30 14 C -3.9566 2.3197 0.0 0
M  V30 15 O 1.2246 6.8063 0.0 0
M  V30 16 C 5.1106 4.5571 0.0 0
M  V30 17 C -3.9683 0.836 0.0 0
M  V30 18 C -5.2636 3.0734 0.0 0
M  V30 19 C -0.0824 7.5599 0.0 0
M  V30 20 C -5.2754 0.0942 0.0 0
M  V30 21 C -6.5707 2.3433 0.0 0
M  V30 22 C -6.5825 0.8596 0.0 0
M  V30 END ATOM
M  V30 BEGIN BOND
M  V30 1 2 1 2
M  V30 2 1 2 3
M  V30 3 1 2 4
M  V30 4 2 4 5
M  V30 5 1 4 6
M  V30 6 1 5 7
M  V30 7 1 5 8
M  V30 8 2 6 9
M  V30 9 1 7 10
M  V30 10 2 8 11
M  V30 11 1 9 12
M  V30 12 2 10 13
M  V30 13 1 10 14
M  V30 14 1 11 15
M  V30 15 1 12 16
M  V30 16 2 14 17
M  V30 17 1 14 18
M  V30 18 1 15 19
M  V30 19 1 17 20
M  V30 20 2 18 21
M  V30 21 2 20 22
M  V30 22 1 9 11
M  V30 23 1 21 22
M  V30 END BOND
M  V30 END CTAB
M  END
>  <Structure No>
430

>  <Catalog ID>
Z57161388

>  <MW (desalted)>
301.294

>  <ClogP>
2.967

>  <HBD>
2

>  <TPSA>
84.860

>  <RotBonds>
5

>  <Target>
Serine/threonine-protein kinase Chk1

>  <fromRegid>
CHEMBL1997495

>  <Similarity>
0.98

$$$$
Compound 431
Actelion Java MolfileCreator 2.0

  0  0  0  0  0  0              0 V3000
M  V30 BEGIN CTAB
M  V30 COUNTS 22 24 0 0 0
M  V30 BEGIN ATOM
M  V30 1 O 0.0 0.0 0.0 0
M  V30 2 C 0.4467 1.4341 0.0 0
M  V30 3 C 1.8573 1.9043 0.0 0
M  V30 4 C -0.4467 2.6567 0.0 0
M  V30 5 C 1.8456 3.409 0.0 0
M  V30 6 C 3.1386 1.1637 0.0 0
M  V30 7 O 0.4231 3.8792 0.0 0
M  V30 8 C -1.9513 2.6684 0.0 0
M  V30 9 C 3.1269 4.1731 0.0 0
M  V30 10 C 4.42 1.9278 0.0 0
M  V30 11 C -2.7037 3.9733 0.0 0
M  V30 12 C 4.4082 3.4443 0.0 0
M  V30 13 C -4.2084 3.985 0.0 0
M  V30 14 C -1.9749 5.2781 0.0 0
M  V30 15 O 5.6896 4.2084 0.0 0
M  V30 16 O -4.9725 2.7037 0.0 0
M  V30 17 C -4.9725 5.2899 0.0 0
M  V30 18 C -2.7272 6.583 0.0 0
M  V30 19 C -6.4772 2.7155 0.0 0
M  V30 20 O -6.4772 5.3016 0.0 0
M  V30 21 C -4.2319 6.5947 0.0 0
M  V30 22 C -7.2413 6.6065 0.0 0
M  V30 END ATOM
M  V30 BEGIN BOND
M  V30 1 2 1 2
M  V30 2 1 2 3
M  V30 3 1 2 4
M  V30 4 2 3 5
M  V30 5 1 3 6
M  V30 6 1 4 7
M  V30 7 2 4 8 CFG=2
M  V30 8 1 5 9
M  V30 9 2 6 10
M  V30 10 1 8 11
M  V30 11 2 9 12
M  V30 12 2 11 13
M  V30 13 1 11 14
M  V30 14 1 12 15
M  V30 15 1 13 16
M  V30 16 1 13 17
M  V30 17 2 14 18
M  V30 18 1 16 19
M  V30 19 1 17 20
M  V30 20 2 17 21
M  V30 21 1 20 22
M  V30 22 1 5 7
M  V30 23 1 10 12
M  V30 24 1 18 21
M  V30 END BOND
M  V30 END CTAB
M  END
>  <Structure No>
431

>  <Catalog ID>
Z196385656

>  <MW (desalted)>
298.290

>  <ClogP>
3.435

>  <HBD>
1

>  <TPSA>
64.990

>  <RotBonds>
3

>  <Target>
Poly [ADP-ribose] polymerase-1

>  <fromRegid>
CHEMBL3290471

>  <Similarity>
0.86

$$$$
Compound 432
Actelion Java MolfileCreator 2.0

  0  0  0  0  0  0              0 V3000
M  V30 BEGIN CTAB
M  V30 COUNTS 22 23 0 0 0
M  V30 BEGIN ATOM
M  V30 1 O 0.0 0.0 0.0 0
M  V30 2 C -1.3034 0.7515 0.0 0
M  V30 3 O -2.6069 0.0234 0.0 0
M  V30 4 C -1.3152 2.2546 0.0 0
M  V30 5 C -0.0352 3.0061 0.0 0
M  V30 6 C -2.6186 3.0061 0.0 0
M  V30 7 C -0.0469 4.5092 0.0 0
M  V30 8 C -2.6304 4.5092 0.0 0
M  V30 9 C -1.3504 5.2608 0.0 0
M  V30 10 N -1.3621 6.7639 0.0 0
M  V30 11 C -2.6656 7.5272 0.0 0
M  V30 12 O -3.9691 6.7874 0.0 0
M  V30 13 C -2.6773 9.0302 0.0 0
M  V30 14 C -3.9808 9.7818 0.0 0
M  V30 15 C -1.3974 9.7818 0.0 0
M  V30 16 C -3.9925 11.2849 0.0 0
M  V30 17 C -1.4091 11.2849 0.0 0
M  V30 18 O -5.296 12.0364 0.0 0
M  V30 19 C -2.7126 12.0364 0.0 0
M  V30 20 C -5.3077 13.5395 0.0 0
M  V30 21 O -2.7243 13.5395 0.0 0
M  V30 22 C -4.0278 14.2911 0.0 0
M  V30 END ATOM
M  V30 BEGIN BOND
M  V30 1 2 1 2
M  V30 2 1 2 3
M  V30 3 1 2 4
M  V30 4 2 4 5
M  V30 5 1 4 6
M  V30 6 1 5 7
M  V30 7 2 6 8
M  V30 8 2 7 9
M  V30 9 1 9 10
M  V30 10 1 10 11
M  V30 11 2 11 12
M  V30 12 1 11 13
M  V30 13 2 13 14
M  V30 14 1 13 15
M  V30 15 1 14 16
M  V30 16 2 15 17
M  V30 17 1 16 18
M  V30 18 2 16 19
M  V30 19 1 18 20
M  V30 20 1 19 21
M  V30 21 1 21 22
M  V30 22 1 8 9
M  V30 23 1 17 19
M  V30 END BOND
M  V30 END CTAB
M  END
>  <Structure No>
432

>  <Catalog ID>
Z56177222

>  <MW (desalted)>
301.294

>  <ClogP>
2.459

>  <HBD>
2

>  <TPSA>
84.860

>  <RotBonds>
5

>  <Target>
Serine/threonine-protein kinase Chk1

>  <fromRegid>
CHEMBL1997495

>  <Similarity>
0.89

$$$$
Compound 433
Actelion Java MolfileCreator 2.0

  0  0  0  0  0  0              0 V3000
M  V30 BEGIN CTAB
M  V30 COUNTS 22 24 0 0 0
M  V30 BEGIN ATOM
M  V30 1 O 0.0 0.0 0.0 0
M  V30 2 C 0.4489 1.4415 0.0 0
M  V30 3 C 1.8668 1.9141 0.0 0
M  V30 4 C -0.4489 2.6703 0.0 0
M  V30 5 C 1.855 3.4265 0.0 0
M  V30 6 C 3.1547 1.1697 0.0 0
M  V30 7 O 0.4253 3.8991 0.0 0
M  V30 8 C -1.9613 2.6821 0.0 0
M  V30 9 C 3.1429 4.1945 0.0 0
M  V30 10 C 4.4426 1.9377 0.0 0
M  V30 11 C -2.7175 1.3942 0.0 0
M  V30 12 C 4.4308 3.4619 0.0 0
M  V30 13 C -1.985 0.1063 0.0 0
M  V30 14 C -4.2299 1.406 0.0 0
M  V30 15 O 5.7187 4.2299 0.0 0
M  V30 16 C -2.7412 -1.1815 0.0 0
M  V30 17 C -4.998 0.1181 0.0 0
M  V30 18 O -2.0086 -2.4694 0.0 0
M  V30 19 C -4.2536 -1.1697 0.0 0
M  V30 20 C -2.7648 -3.7573 0.0 0
M  V30 21 O -5.0216 -2.4576 0.0 0
M  V30 22 C -4.2772 -3.7455 0.0 0
M  V30 END ATOM
M  V30 BEGIN BOND
M  V30 1 2 1 2
M  V30 2 1 2 3
M  V30 3 1 2 4
M  V30 4 2 3 5
M  V30 5 1 3 6
M  V30 6 1 4 7
M  V30 7 2 4 8 CFG=2
M  V30 8 1 5 9
M  V30 9 2 6 10
M  V30 10 1 8 11
M  V30 11 2 9 12
M  V30 12 2 11 13
M  V30 13 1 11 14
M  V30 14 1 12 15
M  V30 15 1 13 16
M  V30 16 2 14 17
M  V30 17 1 16 18
M  V30 18 2 16 19
M  V30 19 1 18 20
M  V30 20 1 19 21
M  V30 21 1 21 22
M  V30 22 1 5 7
M  V30 23 1 10 12
M  V30 24 1 17 19
M  V30 END BOND
M  V30 END CTAB
M  END
>  <Structure No>
433

>  <Catalog ID>
Z196385662

>  <MW (desalted)>
298.290

>  <ClogP>
3.435

>  <HBD>
1

>  <TPSA>
64.990

>  <RotBonds>
3

>  <Target>
Poly [ADP-ribose] polymerase-1

>  <fromRegid>
CHEMBL3290471

>  <Similarity>
0.87

$$$$
Compound 434
Actelion Java MolfileCreator 2.0

  0  0  0  0  0  0              0 V3000
M  V30 BEGIN CTAB
M  V30 COUNTS 22 24 0 0 0
M  V30 BEGIN ATOM
M  V30 1 O 0.0 0.0 0.0 0
M  V30 2 C 0.4483 1.4393 0.0 0
M  V30 3 C 1.8641 1.9113 0.0 0
M  V30 4 C -0.4483 2.6664 0.0 0
M  V30 5 C 1.8523 3.4215 0.0 0
M  V30 6 C 3.1501 1.168 0.0 0
M  V30 7 O 0.4247 3.8934 0.0 0
M  V30 8 C -1.9585 2.6782 0.0 0
M  V30 9 C 3.1383 4.1884 0.0 0
M  V30 10 C 4.4361 1.9349 0.0 0
M  V30 11 C -2.7136 1.3922 0.0 0
M  V30 12 C 4.4243 3.4569 0.0 0
M  V30 13 C -4.2237 1.404 0.0 0
M  V30 14 C -1.9821 0.1061 0.0 0
M  V30 15 O 5.7103 4.2237 0.0 0
M  V30 16 O -4.9906 2.7136 0.0 0
M  V30 17 C -4.9906 0.1179 0.0 0
M  V30 18 C -2.7372 -1.1798 0.0 0
M  V30 19 C -4.2473 4.0232 0.0 0
M  V30 20 C -4.2473 -1.168 0.0 0
M  V30 21 O -5.0142 -2.454 0.0 0
M  V30 22 C -4.2709 -3.74 0.0 0
M  V30 END ATOM
M  V30 BEGIN BOND
M  V30 1 2 1 2
M  V30 2 1 2 3
M  V30 3 1 2 4
M  V30 4 2 3 5
M  V30 5 1 3 6
M  V30 6 1 4 7
M  V30 7 2 4 8 CFG=2
M  V30 8 1 5 9
M  V30 9 2 6 10
M  V30 10 1 8 11
M  V30 11 2 9 12
M  V30 12 2 11 13
M  V30 13 1 11 14
M  V30 14 1 12 15
M  V30 15 1 13 16
M  V30 16 1 13 17
M  V30 17 2 14 18
M  V30 18 1 16 19
M  V30 19 2 17 20
M  V30 20 1 20 21
M  V30 21 1 21 22
M  V30 22 1 5 7
M  V30 23 1 10 12
M  V30 24 1 18 20
M  V30 END BOND
M  V30 END CTAB
M  END
>  <Structure No>
434

>  <Catalog ID>
Z196385666

>  <MW (desalted)>
298.290

>  <ClogP>
3.785

>  <HBD>
1

>  <TPSA>
64.990

>  <RotBonds>
3

>  <Target>
Poly [ADP-ribose] polymerase-1

>  <fromRegid>
CHEMBL3290477

>  <Similarity>
0.86

$$$$
Compound 435
Actelion Java MolfileCreator 2.0

  0  0  0  0  0  0              0 V3000
M  V30 BEGIN CTAB
M  V30 COUNTS 22 24 0 0 0
M  V30 BEGIN ATOM
M  V30 1 O 0.0 0.0 0.0 0
M  V30 2 C -0.0117 1.5084 0.0 0
M  V30 3 N -1.3199 2.2744 0.0 0
M  V30 4 C 1.2727 2.2744 0.0 0
M  V30 5 C -1.3316 3.7829 0.0 0
M  V30 6 C 1.2609 3.7829 0.0 0
M  V30 7 C 2.5573 1.532 0.0 0
M  V30 8 C -2.6398 4.5371 0.0 0
M  V30 9 C -0.0471 4.5371 0.0 0
M  V30 10 C 2.5455 4.5371 0.0 0
M  V30 11 C 3.8418 2.298 0.0 0
M  V30 12 O -2.6515 6.0456 0.0 0
M  V30 13 N -3.9479 3.8064 0.0 0
M  V30 14 C 3.83 3.8064 0.0 0
M  V30 15 C -5.256 4.5607 0.0 0
M  V30 16 C -3.9597 2.3216 0.0 0
M  V30 17 C -6.5641 3.83 0.0 0
M  V30 18 C -5.2678 1.5791 0.0 0
M  V30 19 N -6.5759 2.3451 0.0 0
M  V30 20 C -7.884 1.6027 0.0 0
M  V30 21 C -7.8958 0.1178 0.0 0
M  V30 22 O -9.2039 -0.6245 0.0 0
M  V30 END ATOM
M  V30 BEGIN BOND
M  V30 1 2 1 2
M  V30 2 1 2 3
M  V30 3 1 2 4
M  V30 4 1 3 5
M  V30 5 2 4 6
M  V30 6 1 4 7
M  V30 7 1 5 8
M  V30 8 2 5 9
M  V30 9 1 6 10
M  V30 10 2 7 11
M  V30 11 2 8 12
M  V30 12 1 8 13
M  V30 13 2 10 14
M  V30 14 1 13 15
M  V30 15 1 13 16
M  V30 16 1 15 17
M  V30 17 1 16 18
M  V30 18 1 17 19
M  V30 19 1 19 20
M  V30 20 1 20 21
M  V30 21 1 21 22
M  V30 22 1 6 9
M  V30 23 1 11 14
M  V30 24 1 18 19
M  V30 END BOND
M  V30 END CTAB
M  END
>  <Structure No>
435

>  <Catalog ID>
Z167281862

>  <MW (desalted)>
301.340

>  <ClogP>
-0.080

>  <HBD>
2

>  <TPSA>
72.880

>  <RotBonds>
3

>  <Target>
parp2

>  <fromRegid>


>  <Similarity>


$$$$
Compound 436
Actelion Java MolfileCreator 2.0

  0  0  0  0  0  0              0 V3000
M  V30 BEGIN CTAB
M  V30 COUNTS 22 23 0 0 0
M  V30 BEGIN ATOM
M  V30 1 O 0.0 0.0 0.0 0
M  V30 2 C 1.2929 -0.7473 0.0 0
M  V30 3 N 2.5859 0.0118 0.0 0
M  V30 4 C 1.2811 -2.2419 0.0 0
M  V30 5 C -0.0355 -2.9892 0.0 0
M  V30 6 C 2.574 -2.9892 0.0 0
M  V30 7 C -0.0474 -4.4839 0.0 0
M  V30 8 C 2.5622 -4.4839 0.0 0
M  V30 9 N -1.3641 -5.2193 0.0 0
M  V30 10 C 1.2455 -5.2193 0.0 0
M  V30 11 C -1.376 -6.714 0.0 0
M  V30 12 O -2.6927 -7.4613 0.0 0
M  V30 13 C -0.083 -7.4613 0.0 0
M  V30 14 C -0.0948 -8.9559 0.0 0
M  V30 15 C 1.376 -8.6831 0.0 0
M  V30 16 C 0.4033 -10.3557 0.0 0
M  V30 17 C -1.5895 -8.6831 0.0 0
M  V30 18 O 2.3368 -9.8219 0.0 0
M  V30 19 O 1.8742 -7.2596 0.0 0
M  V30 20 C -0.5812 -11.4944 0.0 0
M  V30 21 C -2.574 -9.8219 0.0 0
M  V30 22 C -2.0758 -11.2216 0.0 0
M  V30 END ATOM
M  V30 BEGIN BOND
M  V30 1 2 1 2
M  V30 2 1 2 3
M  V30 3 1 2 4
M  V30 4 2 4 5
M  V30 5 1 4 6
M  V30 6 1 5 7
M  V30 7 2 6 8
M  V30 8 1 7 9
M  V30 9 2 7 10
M  V30 10 1 9 11
M  V30 11 2 11 12
M  V30 12 1 11 13
M  V30 13 1 13 14
M  V30 14 1 14 15
M  V30 15 1 14 16
M  V30 16 1 14 17
M  V30 17 2 15 18
M  V30 18 1 15 19
M  V30 19 1 16 20
M  V30 20 1 17 21
M  V30 21 1 20 22
M  V30 22 1 8 10
M  V30 23 1 21 22
M  V30 END BOND
M  V30 END CTAB
M  END
>  <Structure No>
436

>  <Catalog ID>
Z221346204

>  <MW (desalted)>
304.341

>  <ClogP>
1.772

>  <HBD>
3

>  <TPSA>
109.490

>  <RotBonds>
5

>  <Target>
Poly [ADP-ribose] polymerase-1

>  <fromRegid>
CHEMBL3414766

>  <Similarity>
0.92

$$$$
Compound 437
Actelion Java MolfileCreator 2.0

  0  0  0  0  0  0              0 V3000
M  V30 BEGIN CTAB
M  V30 COUNTS 22 24 0 0 0
M  V30 BEGIN ATOM
M  V30 1 O 0.0 0.0 0.0 0
M  V30 2 C -0.0118 -1.4936 0.0 0
M  V30 3 N -1.3277 -2.2286 0.0 0
M  V30 4 C 1.2802 -2.2286 0.0 0
M  V30 5 N -1.3395 -3.7223 0.0 0
M  V30 6 C 1.2684 -3.7223 0.0 0
M  V30 7 C 2.5724 -1.4699 0.0 0
M  V30 8 C -0.0474 -4.4691 0.0 0
M  V30 9 C 2.5605 -4.4691 0.0 0
M  V30 10 C 3.8645 -2.2049 0.0 0
M  V30 11 C -0.0592 -5.9628 0.0 0
M  V30 12 C 3.8527 -3.7104 0.0 0
M  V30 13 O 1.2328 -6.7096 0.0 0
M  V30 14 N -1.3751 -6.7096 0.0 0
M  V30 15 C -1.3869 -8.2033 0.0 0 CFG=2
M  V30 16 C -2.7028 -8.9383 0.0 0
M  V30 17 C -0.0948 -8.9383 0.0 0
M  V30 18 C -2.7146 -10.432 0.0 0
M  V30 19 C -4.0187 -8.1796 0.0 0
M  V30 20 C -4.0305 -11.1788 0.0 0
M  V30 21 C -5.3345 -8.9146 0.0 0
M  V30 22 N -5.3464 -10.4083 0.0 0
M  V30 END ATOM
M  V30 BEGIN BOND
M  V30 1 2 1 2
M  V30 2 1 2 3
M  V30 3 1 2 4
M  V30 4 1 3 5
M  V30 5 2 4 6
M  V30 6 1 4 7
M  V30 7 2 5 8
M  V30 8 1 6 9
M  V30 9 2 7 10
M  V30 10 1 8 11
M  V30 11 2 9 12
M  V30 12 2 11 13
M  V30 13 1 11 14
M  V30 14 1 15 14 CFG=1
M  V30 15 1 15 16
M  V30 16 1 15 17
M  V30 17 2 16 18
M  V30 18 1 16 19
M  V30 19 1 18 20
M  V30 20 2 19 21
M  V30 21 2 20 22
M  V30 22 1 6 8
M  V30 23 1 10 12
M  V30 24 1 21 22
M  V30 END BOND
M  V30 BEGIN COLLECTION
M  V30 MDLV30/STERAC1 ATOMS=(1 15)
M  V30 END COLLECTION
M  V30 END CTAB
M  END
>  <Structure No>
437

>  <Catalog ID>
Z27995136

>  <MW (desalted)>
294.308

>  <ClogP>
-0.028

>  <HBD>
2

>  <TPSA>
83.450

>  <RotBonds>
3

>  <Target>
CHK1

>  <fromRegid>


>  <Similarity>


$$$$
Compound 438
Actelion Java MolfileCreator 2.0

  0  0  0  0  0  0              0 V3000
M  V30 BEGIN CTAB
M  V30 COUNTS 22 23 0 0 0
M  V30 BEGIN ATOM
M  V30 1 O 0.0 0.0 0.0 0
M  V30 2 C 0.4517 -1.413 0.0 0
M  V30 3 N 1.9111 -1.7142 0.0 0
M  V30 4 C -0.5675 -2.5134 0.0 0
M  V30 5 C 2.9072 -0.5907 0.0 0
M  V30 6 C -2.0501 -2.189 0.0 0
M  V30 7 C -0.1158 -3.9264 0.0 0
M  V30 8 C -3.0693 -3.2894 0.0 0
M  V30 9 C -1.135 -5.0268 0.0 0
M  V30 10 N -4.5519 -2.9651 0.0 0
M  V30 11 C -2.6176 -4.7024 0.0 0
M  V30 12 C -5.5711 -4.0654 0.0 0
M  V30 13 O -5.1194 -5.4785 0.0 0
M  V30 14 C -7.0537 -3.7411 0.0 0
M  V30 15 C -8.073 -4.8414 0.0 0
M  V30 16 C -9.0922 -3.7179 0.0 0
M  V30 17 C -9.3007 -5.7101 0.0 0
M  V30 18 C -6.8684 -5.7101 0.0 0
M  V30 19 O -10.5748 -4.0191 0.0 0
M  V30 20 O -8.6405 -2.2817 0.0 0
M  V30 21 C -8.849 -7.1232 0.0 0
M  V30 22 C -7.3433 -7.1232 0.0 0
M  V30 END ATOM
M  V30 BEGIN BOND
M  V30 1 2 1 2
M  V30 2 1 2 3
M  V30 3 1 2 4
M  V30 4 1 3 5
M  V30 5 2 4 6
M  V30 6 1 4 7
M  V30 7 1 6 8
M  V30 8 2 7 9
M  V30 9 1 8 10
M  V30 10 2 8 11
M  V30 11 1 10 12
M  V30 12 2 12 13
M  V30 13 1 12 14
M  V30 14 1 14 15
M  V30 15 1 15 16
M  V30 16 1 15 17
M  V30 17 1 15 18
M  V30 18 2 16 19
M  V30 19 1 16 20
M  V30 20 1 17 21
M  V30 21 1 18 22
M  V30 22 1 9 11
M  V30 23 1 21 22
M  V30 END BOND
M  V30 END CTAB
M  END
>  <Structure No>
438

>  <Catalog ID>
Z90313869

>  <MW (desalted)>
304.341

>  <ClogP>
1.419

>  <HBD>
3

>  <TPSA>
95.500

>  <RotBonds>
5

>  <Target>
Poly [ADP-ribose] polymerase-1

>  <fromRegid>
CHEMBL3414766

>  <Similarity>
0.89

$$$$
Compound 439
Actelion Java MolfileCreator 2.0

  0  0  0  0  0  0              0 V3000
M  V30 BEGIN CTAB
M  V30 COUNTS 22 24 0 0 0
M  V30 BEGIN ATOM
M  V30 1 O 0.0 0.0 0.0 0
M  V30 2 C -0.0118 1.5144 0.0 0
M  V30 3 N 1.2777 2.2716 0.0 0
M  V30 4 C -1.3251 2.2716 0.0 0
M  V30 5 C 2.5673 1.538 0.0 0
M  V30 6 N -1.4907 3.7741 0.0 0
M  V30 7 C -2.7093 1.6682 0.0 0
M  V30 8 C 3.8569 2.2952 0.0 0
M  V30 9 C -2.9696 4.0936 0.0 0
M  V30 10 C -3.7268 2.7921 0.0 0
M  V30 11 C 5.1465 1.5617 0.0 0
M  V30 12 C -5.2294 2.6502 0.0 0
M  V30 13 N 6.5071 2.1887 0.0 0
M  V30 14 N 5.2885 0.0828 0.0 0
M  V30 15 O -5.8564 1.2896 0.0 0
M  V30 16 C -6.1285 3.8806 0.0 0
M  V30 17 C 7.501 1.0884 0.0 0
M  V30 18 C 6.7438 -0.2129 0.0 0
M  V30 19 C 8.9917 1.1003 0.0 0
M  V30 20 C 7.4891 -1.5025 0.0 0
M  V30 21 C 9.7371 -0.1893 0.0 0
M  V30 22 C 8.9799 -1.4907 0.0 0
M  V30 END ATOM
M  V30 BEGIN BOND
M  V30 1 2 1 2
M  V30 2 1 2 3
M  V30 3 1 2 4
M  V30 4 1 3 5
M  V30 5 1 4 6
M  V30 6 2 4 7
M  V30 7 1 5 8
M  V30 8 1 6 9
M  V30 9 1 7 10
M  V30 10 1 8 11
M  V30 11 1 10 12
M  V30 12 2 11 13
M  V30 13 1 11 14
M  V30 14 2 12 15
M  V30 15 1 12 16
M  V30 16 1 13 17
M  V30 17 1 14 18
M  V30 18 1 17 19
M  V30 19 1 18 20
M  V30 20 2 19 21
M  V30 21 2 20 22
M  V30 22 2 9 10
M  V30 23 2 17 18
M  V30 24 1 21 22
M  V30 END BOND
M  V30 END CTAB
M  END
>  <Structure No>
439

>  <Catalog ID>
Z198287396

>  <MW (desalted)>
296.324

>  <ClogP>
1.170

>  <HBD>
3

>  <TPSA>
90.640

>  <RotBonds>
5

>  <Target>
CHK1

>  <fromRegid>


>  <Similarity>


$$$$
Compound 440
Actelion Java MolfileCreator 2.0

  0  0  0  0  0  0              0 V3000
M  V30 BEGIN CTAB
M  V30 COUNTS 22 23 0 0 0
M  V30 BEGIN ATOM
M  V30 1 Cl 0.0 0.0 0.0 0
M  V30 2 C -0.0117 1.5068 0.0 0
M  V30 3 C -1.3185 2.272 0.0 0
M  V30 4 C 1.2714 2.272 0.0 0
M  V30 5 C -1.3302 3.7789 0.0 0
M  V30 6 C 1.2596 3.7789 0.0 0
M  V30 7 C -2.637 4.5323 0.0 0
M  V30 8 C -0.047 4.5323 0.0 0
M  V30 9 O -2.6487 6.0392 0.0 0
M  V30 10 N -3.9437 3.8024 0.0 0
M  V30 11 C -5.2504 4.5559 0.0 0
M  V30 12 C -6.5572 3.826 0.0 0
M  V30 13 O -6.5689 2.3427 0.0 0
M  V30 14 N -7.8639 4.5794 0.0 0
M  V30 15 C -9.1706 3.8495 0.0 0
M  V30 16 C -9.1824 2.3662 0.0 0
M  V30 17 C -10.4774 4.603 0.0 0
M  V30 18 C -10.4891 1.6245 0.0 0
M  V30 19 C -11.7841 3.8731 0.0 0
M  V30 20 C -11.7959 2.3897 0.0 0
M  V30 21 C -10.5009 0.1412 0.0 0
M  V30 22 O -11.8076 -0.5886 0.0 0
M  V30 END ATOM
M  V30 BEGIN BOND
M  V30 1 1 1 2
M  V30 2 2 2 3
M  V30 3 1 2 4
M  V30 4 1 3 5
M  V30 5 2 4 6
M  V30 6 1 5 7
M  V30 7 2 5 8
M  V30 8 2 7 9
M  V30 9 1 7 10
M  V30 10 1 10 11
M  V30 11 1 11 12
M  V30 12 2 12 13
M  V30 13 1 12 14
M  V30 14 1 14 15
M  V30 15 2 15 16
M  V30 16 1 15 17
M  V30 17 1 16 18
M  V30 18 2 17 19
M  V30 19 2 18 20
M  V30 20 1 18 21
M  V30 21 1 21 22
M  V30 22 1 6 8
M  V30 23 1 19 20
M  V30 END BOND
M  V30 END CTAB
M  END
>  <Structure No>
440

>  <Catalog ID>
Z32803259

>  <MW (desalted)>
318.755

>  <ClogP>
1.738

>  <HBD>
3

>  <TPSA>
78.430

>  <RotBonds>
5

>  <Target>
DNA_pk

>  <fromRegid>


>  <Similarity>


$$$$
Compound 441
Actelion Java MolfileCreator 2.0

  0  0  0  0  0  0              0 V3000
M  V30 BEGIN CTAB
M  V30 COUNTS 23 24 0 0 0
M  V30 BEGIN ATOM
M  V30 1 Cl 0.0 0.0 0.0 0
M  V30 2 S 5.4927 0.3788 0.0 0
M  V30 3 O 6.9843 0.3906 0.0 0
M  V30 4 O 3.9775 0.3906 0.0 0
M  V30 5 N 5.4809 -1.1127 0.0 0
M  V30 6 C 5.4809 1.894 0.0 0
M  V30 7 C 6.7712 -1.8467 0.0 0
M  V30 8 C 4.1669 -1.8585 0.0 0
M  V30 9 C 6.7712 2.6516 0.0 0
M  V30 10 C 4.1669 2.6516 0.0 0
M  V30 11 C 6.7594 -3.3382 0.0 0 CFG=2
M  V30 12 C 4.155 -3.3501 0.0 0
M  V30 13 C 6.7594 4.1669 0.0 0
M  V30 14 C 8.0615 1.9058 0.0 0
M  V30 15 C 4.155 4.1669 0.0 0
M  V30 16 C 5.4454 -4.0722 0.0 0
M  V30 17 C 8.0497 -4.0722 0.0 0
M  V30 18 C 8.0497 4.9245 0.0 0
M  V30 19 C 5.4454 4.9363 0.0 0
M  V30 20 C 9.3519 2.6635 0.0 0
M  V30 21 N 8.0379 -5.5638 0.0 0
M  V30 22 N 9.34 4.1906 0.0 0
M  V30 23 C 9.3282 -6.2977 0.0 0
M  V30 END ATOM
M  V30 BEGIN BOND
M  V30 1 2 2 3
M  V30 2 2 2 4
M  V30 3 1 2 5
M  V30 4 1 2 6
M  V30 5 1 5 7
M  V30 6 1 5 8
M  V30 7 1 6 9
M  V30 8 2 6 10
M  V30 9 1 7 11
M  V30 10 1 8 12
M  V30 11 1 9 13
M  V30 12 2 9 14
M  V30 13 1 10 15
M  V30 14 1 11 16
M  V30 15 1 11 17 CFG=1
M  V30 16 2 13 18
M  V30 17 1 13 19
M  V30 18 1 14 20
M  V30 19 1 17 21
M  V30 20 1 18 22
M  V30 21 1 21 23
M  V30 22 1 12 16
M  V30 23 2 15 19
M  V30 24 2 20 22
M  V30 END BOND
M  V30 BEGIN COLLECTION
M  V30 MDLV30/STERAC1 ATOMS=(1 11)
M  V30 END COLLECTION
M  V30 END CTAB
M  END
>  <Structure No>
441

>  <Catalog ID>
Z1491218666

>  <MW (desalted)>
319.422

>  <ClogP>
1.097

>  <HBD>
1

>  <TPSA>
62.300

>  <RotBonds>
3

>  <Target>
Serine/threonine-protein kinase Chk1

>  <fromRegid>
CHEMBL2420922

>  <Similarity>
0.95

$$$$
Compound 442
Actelion Java MolfileCreator 2.0

  0  0  0  0  0  0              0 V3000
M  V30 BEGIN CTAB
M  V30 COUNTS 22 24 0 0 0
M  V30 BEGIN ATOM
M  V30 1 O 0.0 0.0 0.0 0
M  V30 2 C -0.0118 -1.4974 0.0 0
M  V30 3 N -1.331 -2.2343 0.0 0
M  V30 4 C 1.2835 -2.2343 0.0 0
M  V30 5 N -1.3429 -3.7317 0.0 0
M  V30 6 C 1.2716 -3.7317 0.0 0
M  V30 7 C 2.5789 -1.4736 0.0 0
M  V30 8 C -0.0475 -4.4804 0.0 0
M  V30 9 C 2.567 -4.4804 0.0 0
M  V30 10 C 3.8743 -2.2105 0.0 0
M  V30 11 C -0.0594 -5.9779 0.0 0
M  V30 12 C 3.8624 -3.7198 0.0 0
M  V30 13 O -1.3786 -6.7266 0.0 0
M  V30 14 N 1.2359 -6.7266 0.0 0
M  V30 15 C 1.2241 -8.2241 0.0 0
M  V30 16 C 2.5314 -5.9541 0.0 0
M  V30 17 C 2.5195 -8.9609 0.0 0
M  V30 18 C 3.8268 -6.7029 0.0 0
M  V30 19 N 3.8149 -8.2003 0.0 0
M  V30 20 C 5.1103 -8.9372 0.0 0
M  V30 21 O 5.0984 -10.4346 0.0 0
M  V30 22 C 6.4057 -8.1765 0.0 0
M  V30 END ATOM
M  V30 BEGIN BOND
M  V30 1 2 1 2
M  V30 2 1 2 3
M  V30 3 1 2 4
M  V30 4 1 3 5
M  V30 5 2 4 6
M  V30 6 1 4 7
M  V30 7 2 5 8
M  V30 8 1 6 9
M  V30 9 2 7 10
M  V30 10 1 8 11
M  V30 11 2 9 12
M  V30 12 2 11 13
M  V30 13 1 11 14
M  V30 14 1 14 15
M  V30 15 1 14 16
M  V30 16 1 15 17
M  V30 17 1 16 18
M  V30 18 1 17 19
M  V30 19 1 19 20
M  V30 20 2 20 21
M  V30 21 1 20 22
M  V30 22 1 6 8
M  V30 23 1 10 12
M  V30 24 1 18 19
M  V30 END BOND
M  V30 END CTAB
M  END
>  <Structure No>
442

>  <Catalog ID>
Z31727123

>  <MW (desalted)>
300.313

>  <ClogP>
-1.515

>  <HBD>
1

>  <TPSA>
82.080

>  <RotBonds>
1

>  <Target>
Poly [ADP-ribose] polymerase-1

>  <fromRegid>
CHEMBL3105422

>  <Similarity>
0.87

$$$$
Compound 443
Actelion Java MolfileCreator 2.0

  0  0  0  0  0  0              0 V3000
M  V30 BEGIN CTAB
M  V30 COUNTS 22 24 0 0 0
M  V30 BEGIN ATOM
M  V30 1 S 0.0 0.0 0.0 0
M  V30 2 C 1.2856 -0.743 0.0 0
M  V30 3 C -1.3092 -0.743 0.0 0
M  V30 4 N 2.5712 0.0117 0.0 0
M  V30 5 N 1.2738 -2.2291 0.0 0
M  V30 6 C -2.6184 0.0117 0.0 0
M  V30 7 C 3.8568 -0.7312 0.0 0
M  V30 8 C 2.5594 -2.9722 0.0 0
M  V30 9 N -3.9276 -0.7312 0.0 0
M  V30 10 C -2.6302 1.5215 0.0 0
M  V30 11 N 5.1424 0.0235 0.0 0
M  V30 12 C 3.845 -2.2173 0.0 0
M  V30 13 N 2.5476 -4.4583 0.0 0
M  V30 14 C -5.2368 0.0235 0.0 0
M  V30 15 C -3.9394 2.2763 0.0 0
M  V30 16 N -5.2486 1.5333 0.0 0
M  V30 17 C -6.546 -0.7194 0.0 0
M  V30 18 O -3.9512 3.786 0.0 0
M  V30 19 C -6.5578 2.2881 0.0 0
M  V30 20 C -7.8552 0.0353 0.0 0
M  V30 21 C -6.5578 -2.2055 0.0 0
M  V30 22 C -7.867 1.5568 0.0 0
M  V30 END ATOM
M  V30 BEGIN BOND
M  V30 1 1 1 2
M  V30 2 1 1 3
M  V30 3 2 2 4
M  V30 4 1 2 5
M  V30 5 1 3 6
M  V30 6 1 4 7
M  V30 7 2 5 8
M  V30 8 1 6 9
M  V30 9 2 6 10
M  V30 10 1 7 11
M  V30 11 2 7 12
M  V30 12 1 8 13
M  V30 13 2 9 14
M  V30 14 1 10 15
M  V30 15 1 14 16
M  V30 16 1 14 17
M  V30 17 2 15 18
M  V30 18 1 16 19
M  V30 19 2 17 20
M  V30 20 1 17 21
M  V30 21 2 19 22
M  V30 22 1 8 12
M  V30 23 1 15 16
M  V30 24 1 20 22
M  V30 END BOND
M  V30 END CTAB
M  END
>  <Structure No>
443

>  <Catalog ID>
Z335768980

>  <MW (desalted)>
314.366

>  <ClogP>
1.164

>  <HBD>
2

>  <TPSA>
110.490

>  <RotBonds>
3

>  <Target>
CHK2

>  <fromRegid>


>  <Similarity>


$$$$
Compound 444
Actelion Java MolfileCreator 2.0

  0  0  0  0  0  0              0 V3000
M  V30 BEGIN CTAB
M  V30 COUNTS 22 24 0 0 0
M  V30 BEGIN ATOM
M  V30 1 F 0.0 0.0 0.0 0
M  V30 2 C -1.3147 0.758 0.0 0
M  V30 3 C -2.6295 0.0236 0.0 0
M  V30 4 C -1.3266 2.2741 0.0 0
M  V30 5 C -3.9442 0.7817 0.0 0
M  V30 6 C -2.6413 -1.4687 0.0 0 CFG=1
M  V30 7 C -2.6413 3.044 0.0 0
M  V30 8 C -3.9561 2.2978 0.0 0
M  V30 9 N -1.3502 -2.2031 0.0 0
M  V30 10 C -3.9561 -2.2031 0.0 0
M  V30 11 C -1.3621 -3.6955 0.0 0
M  V30 12 C -0.071 -4.4299 0.0 0
M  V30 13 N 1.22 -3.6718 0.0 0
M  V30 14 N -0.0829 -5.9223 0.0 0
M  V30 15 C 2.511 -4.4062 0.0 0
M  V30 16 C 1.2081 -6.6685 0.0 0
M  V30 17 C 2.4992 -5.8986 0.0 0
M  V30 18 C 3.8021 -3.6481 0.0 0
M  V30 19 O 1.1963 -8.1609 0.0 0
M  V30 20 C 3.7903 -6.6448 0.0 0
M  V30 21 C 5.0932 -4.3825 0.0 0
M  V30 22 C 5.0813 -5.8868 0.0 0
M  V30 END ATOM
M  V30 BEGIN BOND
M  V30 1 1 1 2
M  V30 2 2 2 3
M  V30 3 1 2 4
M  V30 4 1 3 5
M  V30 5 1 3 6
M  V30 6 2 4 7
M  V30 7 2 5 8
M  V30 8 1 6 9 CFG=1
M  V30 9 1 6 10
M  V30 10 1 9 11
M  V30 11 1 11 12
M  V30 12 2 12 13
M  V30 13 1 12 14
M  V30 14 1 13 15
M  V30 15 1 14 16
M  V30 16 2 15 17
M  V30 17 1 15 18
M  V30 18 2 16 19
M  V30 19 1 17 20
M  V30 20 2 18 21
M  V30 21 2 20 22
M  V30 22 1 7 8
M  V30 23 1 16 17
M  V30 24 1 21 22
M  V30 END BOND
M  V30 BEGIN COLLECTION
M  V30 MDLV30/STERAC1 ATOMS=(1 6)
M  V30 END COLLECTION
M  V30 END CTAB
M  END
>  <Structure No>
444

>  <Catalog ID>
Z44474819

>  <MW (desalted)>
297.327

>  <ClogP>
1.283

>  <HBD>
2

>  <TPSA>
53.490

>  <RotBonds>
4

>  <Target>
parp10

>  <fromRegid>


>  <Similarity>


$$$$
Compound 445
Actelion Java MolfileCreator 2.0

  0  0  0  0  0  0              0 V3000
M  V30 BEGIN CTAB
M  V30 COUNTS 22 24 0 0 0
M  V30 BEGIN ATOM
M  V30 1 Cl 0.0 0.0 0.0 0
M  V30 2 C -0.0118 -1.4981 0.0 0
M  V30 3 C -1.3316 -2.2472 0.0 0
M  V30 4 C 1.2841 -2.2472 0.0 0
M  V30 5 C -1.3435 -3.7453 0.0 0
M  V30 6 C 1.2722 -3.7453 0.0 0
M  V30 7 C -0.0475 -4.4825 0.0 0
M  V30 8 C -0.0594 -5.9806 0.0 0 CFG=1
M  V30 9 N 1.2365 -6.7178 0.0 0
M  V30 10 C -1.3792 -6.7178 0.0 0
M  V30 11 C 1.2246 -8.216 0.0 0
M  V30 12 C 2.5206 -8.9531 0.0 0
M  V30 13 N 3.8166 -8.1922 0.0 0
M  V30 14 N 2.5087 -10.4513 0.0 0
M  V30 15 C 5.1127 -8.9294 0.0 0
M  V30 16 C 3.8048 -11.2004 0.0 0
M  V30 17 C 5.1008 -10.4275 0.0 0
M  V30 18 C 6.4087 -8.1684 0.0 0
M  V30 19 O 3.7929 -12.6985 0.0 0
M  V30 20 C 6.3968 -11.1766 0.0 0
M  V30 21 C 7.7047 -8.9056 0.0 0
M  V30 22 C 7.6928 -10.4156 0.0 0
M  V30 END ATOM
M  V30 BEGIN BOND
M  V30 1 1 1 2
M  V30 2 2 2 3
M  V30 3 1 2 4
M  V30 4 1 3 5
M  V30 5 2 4 6
M  V30 6 2 5 7
M  V30 7 1 7 8
M  V30 8 1 8 9 CFG=1
M  V30 9 1 8 10
M  V30 10 1 9 11
M  V30 11 1 11 12
M  V30 12 2 12 13
M  V30 13 1 12 14
M  V30 14 1 13 15
M  V30 15 1 14 16
M  V30 16 2 15 17
M  V30 17 1 15 18
M  V30 18 2 16 19
M  V30 19 1 17 20
M  V30 20 2 18 21
M  V30 21 2 20 22
M  V30 22 1 6 7
M  V30 23 1 16 17
M  V30 24 1 21 22
M  V30 END BOND
M  V30 BEGIN COLLECTION
M  V30 MDLV30/STERAC1 ATOMS=(1 8)
M  V30 END COLLECTION
M  V30 END CTAB
M  END
>  <Structure No>
445

>  <Catalog ID>
Z44470753

>  <MW (desalted)>
313.781

>  <ClogP>
1.853

>  <HBD>
2

>  <TPSA>
53.490

>  <RotBonds>
4

>  <Target>
parp1, parp2

>  <fromRegid>


>  <Similarity>


$$$$
Compound 446
Actelion Java MolfileCreator 2.0

  0  0  0  0  0  0              0 V3000
M  V30 BEGIN CTAB
M  V30 COUNTS 22 24 0 0 0
M  V30 BEGIN ATOM
M  V30 1 Br 0.0 0.0 0.0 0
M  V30 2 C -0.0118 -1.4981 0.0 0
M  V30 3 C -1.3316 -2.2472 0.0 0
M  V30 4 C 1.2841 -2.2472 0.0 0
M  V30 5 C -1.3435 -3.7453 0.0 0
M  V30 6 C 1.2722 -3.7453 0.0 0
M  V30 7 C -0.0475 -4.4825 0.0 0
M  V30 8 C -0.0594 -5.9806 0.0 0 CFG=1
M  V30 9 N 1.2365 -6.7178 0.0 0
M  V30 10 C -1.3792 -6.7178 0.0 0
M  V30 11 C 1.2246 -8.216 0.0 0
M  V30 12 C 2.5206 -8.9531 0.0 0
M  V30 13 N 3.8166 -8.1922 0.0 0
M  V30 14 N 2.5087 -10.4513 0.0 0
M  V30 15 C 5.1127 -8.9294 0.0 0
M  V30 16 C 3.8048 -11.2004 0.0 0
M  V30 17 C 5.1008 -10.4275 0.0 0
M  V30 18 C 6.4087 -8.1684 0.0 0
M  V30 19 O 3.7929 -12.6985 0.0 0
M  V30 20 C 6.3968 -11.1766 0.0 0
M  V30 21 C 7.7047 -8.9056 0.0 0
M  V30 22 C 7.6928 -10.4156 0.0 0
M  V30 END ATOM
M  V30 BEGIN BOND
M  V30 1 1 1 2
M  V30 2 2 2 3
M  V30 3 1 2 4
M  V30 4 1 3 5
M  V30 5 2 4 6
M  V30 6 2 5 7
M  V30 7 1 7 8
M  V30 8 1 8 9 CFG=1
M  V30 9 1 8 10
M  V30 10 1 9 11
M  V30 11 1 11 12
M  V30 12 2 12 13
M  V30 13 1 12 14
M  V30 14 1 13 15
M  V30 15 1 14 16
M  V30 16 2 15 17
M  V30 17 1 15 18
M  V30 18 2 16 19
M  V30 19 1 17 20
M  V30 20 2 18 21
M  V30 21 2 20 22
M  V30 22 1 6 7
M  V30 23 1 16 17
M  V30 24 1 21 22
M  V30 END BOND
M  V30 BEGIN COLLECTION
M  V30 MDLV30/STERAC1 ATOMS=(1 8)
M  V30 END COLLECTION
M  V30 END CTAB
M  END
>  <Structure No>
446

>  <Catalog ID>
Z44471395

>  <MW (desalted)>
358.232

>  <ClogP>
2.003

>  <HBD>
2

>  <TPSA>
53.490

>  <RotBonds>
4

>  <Target>
parp1

>  <fromRegid>


>  <Similarity>


$$$$
Compound 447
Actelion Java MolfileCreator 2.0

  0  0  0  0  0  0              0 V3000
M  V30 BEGIN CTAB
M  V30 COUNTS 22 24 0 0 0
M  V30 BEGIN ATOM
M  V30 1 O 0.0 0.0 0.0 0
M  V30 2 C -0.0118 -1.4965 0.0 0
M  V30 3 N -1.3302 -2.2328 0.0 0
M  V30 4 C 1.2827 -2.2328 0.0 0
M  V30 5 N -1.3421 -3.7294 0.0 0
M  V30 6 C 1.2708 -3.7294 0.0 0
M  V30 7 C 2.5773 -1.4727 0.0 0
M  V30 8 C -0.0475 -4.4776 0.0 0
M  V30 9 C 2.5654 -4.4776 0.0 0
M  V30 10 C 3.8719 -2.2091 0.0 0
M  V30 11 C -0.0593 -5.9741 0.0 0
M  V30 12 C 3.86 -3.7175 0.0 0
M  V30 13 O -1.3777 -6.7224 0.0 0
M  V30 14 N 1.2352 -6.7224 0.0 0
M  V30 15 C 2.5298 -5.9504 0.0 0
M  V30 16 C 1.2233 -8.2189 0.0 0
M  V30 17 C 3.8244 -6.6986 0.0 0 CFG=1
M  V30 18 C 2.5179 -8.9553 0.0 0
M  V30 19 O 5.119 -5.9266 0.0 0
M  V30 20 C 3.8125 -8.1951 0.0 0
M  V30 21 C 6.4136 -6.6749 0.0 0
M  V30 22 C 7.7082 -5.9029 0.0 0
M  V30 END ATOM
M  V30 BEGIN BOND
M  V30 1 2 1 2
M  V30 2 1 2 3
M  V30 3 1 2 4
M  V30 4 1 3 5
M  V30 5 2 4 6
M  V30 6 1 4 7
M  V30 7 2 5 8
M  V30 8 1 6 9
M  V30 9 2 7 10
M  V30 10 1 8 11
M  V30 11 2 9 12
M  V30 12 2 11 13
M  V30 13 1 11 14
M  V30 14 1 14 15
M  V30 15 1 14 16
M  V30 16 1 15 17
M  V30 17 1 16 18
M  V30 18 1 17 19 CFG=1
M  V30 19 1 17 20
M  V30 20 1 19 21
M  V30 21 1 21 22
M  V30 22 1 6 8
M  V30 23 1 10 12
M  V30 24 1 18 20
M  V30 END BOND
M  V30 BEGIN COLLECTION
M  V30 MDLV30/STERAC1 ATOMS=(1 17)
M  V30 END COLLECTION
M  V30 END CTAB
M  END
>  <Structure No>
447

>  <Catalog ID>
Z827213900

>  <MW (desalted)>
301.340

>  <ClogP>
0.018

>  <HBD>
1

>  <TPSA>
71.000

>  <RotBonds>
3

>  <Target>
parp2

>  <fromRegid>


>  <Similarity>


$$$$
Compound 448
Actelion Java MolfileCreator 2.0

  0  0  0  0  0  0              0 V3000
M  V30 BEGIN CTAB
M  V30 COUNTS 23 24 0 0 0
M  V30 BEGIN ATOM
M  V30 1 Cl 0.0 0.0 0.0 0
M  V30 2 S 5.4936 0.1894 0.0 0
M  V30 3 O 6.9854 0.2012 0.0 0
M  V30 4 O 3.9781 0.2012 0.0 0
M  V30 5 N 5.4818 -1.3023 0.0 0
M  V30 6 C 5.4818 1.7049 0.0 0
M  V30 7 C 6.7723 -2.0364 0.0 0
M  V30 8 C 4.1676 -2.0364 0.0 0
M  V30 9 C 6.7723 2.4626 0.0 0
M  V30 10 C 4.1676 2.4626 0.0 0
M  V30 11 C 6.7605 -3.5282 0.0 0
M  V30 12 C 4.1557 -3.5282 0.0 0
M  V30 13 C 6.7605 3.9781 0.0 0
M  V30 14 C 8.0629 1.7286 0.0 0
M  V30 15 C 4.1557 3.9781 0.0 0
M  V30 16 C 8.051 -4.2623 0.0 0
M  V30 17 C 5.4463 -4.2623 0.0 0
M  V30 18 C 8.051 4.7359 0.0 0
M  V30 19 C 5.4463 4.7477 0.0 0
M  V30 20 C 9.3534 2.4863 0.0 0
M  V30 21 N 9.3416 -3.5045 0.0 0
M  V30 22 C 8.0392 -5.7541 0.0 0
M  V30 23 N 9.3416 4.0018 0.0 0
M  V30 END ATOM
M  V30 BEGIN BOND
M  V30 1 2 2 3
M  V30 2 2 2 4
M  V30 3 1 2 5
M  V30 4 1 2 6
M  V30 5 1 5 7
M  V30 6 1 5 8
M  V30 7 1 6 9
M  V30 8 2 6 10
M  V30 9 1 7 11
M  V30 10 1 8 12
M  V30 11 1 9 13
M  V30 12 2 9 14
M  V30 13 1 10 15
M  V30 14 1 11 16
M  V30 15 1 11 17
M  V30 16 2 13 18
M  V30 17 1 13 19
M  V30 18 1 14 20
M  V30 19 1 16 21
M  V30 20 1 16 22
M  V30 21 1 18 23
M  V30 22 1 12 17
M  V30 23 2 15 19
M  V30 24 2 20 23
M  V30 END BOND
M  V30 END CTAB
M  END
>  <Structure No>
448

>  <Catalog ID>
Z1491321611

>  <MW (desalted)>
319.422

>  <ClogP>
1.260

>  <HBD>
1

>  <TPSA>
76.290

>  <RotBonds>
2

>  <Target>
Serine/threonine-protein kinase Chk1

>  <fromRegid>
CHEMBL2420922

>  <Similarity>
0.93

$$$$
Compound 449
Actelion Java MolfileCreator 2.0

  0  0  0  0  0  0              0 V3000
M  V30 BEGIN CTAB
M  V30 COUNTS 22 24 0 0 0
M  V30 BEGIN ATOM
M  V30 1 O 0.0 0.0 0.0 0
M  V30 2 C -1.017 1.1234 0.0 0
M  V30 3 N -2.4953 0.8278 0.0 0
M  V30 4 C -0.5676 2.5662 0.0 0
M  V30 5 C -2.9683 -0.5913 0.0 0
M  V30 6 N -1.4664 3.7962 0.0 0
M  V30 7 C 0.8514 3.0393 0.0 0
M  V30 8 C -1.9749 -1.6911 0.0 0
M  V30 9 C -4.4466 -0.8869 0.0 0
M  V30 10 N -0.5913 5.0261 0.0 0
M  V30 11 C 0.8396 4.553 0.0 0
M  V30 12 C 2.1405 2.2942 0.0 0
M  V30 13 C -2.448 -3.1102 0.0 0
M  V30 14 C -4.9197 -2.3061 0.0 0
M  V30 15 C 2.1287 5.3217 0.0 0
M  V30 16 C 3.4295 3.0629 0.0 0
M  V30 17 O -1.4546 -4.2101 0.0 0
M  V30 18 C -3.9262 -3.4059 0.0 0
M  V30 19 C 3.4177 4.5767 0.0 0
M  V30 20 C -1.9276 -5.6292 0.0 0
M  V30 21 O -4.3993 -4.825 0.0 0
M  V30 22 C -3.4059 -5.9249 0.0 0
M  V30 END ATOM
M  V30 BEGIN BOND
M  V30 1 2 1 2
M  V30 2 1 2 3
M  V30 3 1 2 4
M  V30 4 1 3 5
M  V30 5 2 4 6
M  V30 6 1 4 7
M  V30 7 2 5 8
M  V30 8 1 5 9
M  V30 9 1 6 10
M  V30 10 2 7 11
M  V30 11 1 7 12
M  V30 12 1 8 13
M  V30 13 2 9 14
M  V30 14 1 11 15
M  V30 15 2 12 16
M  V30 16 1 13 17
M  V30 17 2 13 18
M  V30 18 2 15 19
M  V30 19 1 17 20
M  V30 20 1 18 21
M  V30 21 1 21 22
M  V30 22 1 10 11
M  V30 23 1 14 18
M  V30 24 1 16 19
M  V30 END BOND
M  V30 END CTAB
M  END
>  <Structure No>
449

>  <Catalog ID>
Z32374120

>  <MW (desalted)>
297.309

>  <ClogP>
2.614

>  <HBD>
2

>  <TPSA>
76.240

>  <RotBonds>
4

>  <Target>
Serine/threonine-protein kinase Chk2

>  <fromRegid>
CHEMBL2007002

>  <Similarity>
0.9

$$$$
Compound 450
Actelion Java MolfileCreator 2.0

  0  0  0  0  0  0              0 V3000
M  V30 BEGIN CTAB
M  V30 COUNTS 22 24 0 0 0
M  V30 BEGIN ATOM
M  V30 1 O 0.0 0.0 0.0 0
M  V30 2 C -1.0163 1.1226 0.0 0
M  V30 3 N -2.4935 0.8272 0.0 0
M  V30 4 C -0.5672 2.5644 0.0 0
M  V30 5 C -2.9662 -0.5908 0.0 0
M  V30 6 N -1.4654 3.7935 0.0 0
M  V30 7 C 0.8508 3.0371 0.0 0
M  V30 8 C -4.4435 -0.8863 0.0 0
M  V30 9 C -1.9735 -1.6899 0.0 0
M  V30 10 N -0.5908 5.0225 0.0 0
M  V30 11 C 0.839 4.5498 0.0 0
M  V30 12 C 2.139 2.2926 0.0 0
M  V30 13 C -4.9162 -2.3044 0.0 0
M  V30 14 C -2.4462 -3.108 0.0 0
M  V30 15 C 2.1272 5.318 0.0 0
M  V30 16 C 3.4271 3.0608 0.0 0
M  V30 17 O -6.3934 -2.5999 0.0 0
M  V30 18 C -3.9235 -3.4035 0.0 0
M  V30 19 O -1.4535 -4.2071 0.0 0
M  V30 20 C 3.4153 4.5735 0.0 0
M  V30 21 C -6.8661 -4.018 0.0 0
M  V30 22 C -1.9263 -5.6252 0.0 0
M  V30 END ATOM
M  V30 BEGIN BOND
M  V30 1 2 1 2
M  V30 2 1 2 3
M  V30 3 1 2 4
M  V30 4 1 3 5
M  V30 5 2 4 6
M  V30 6 1 4 7
M  V30 7 2 5 8
M  V30 8 1 5 9
M  V30 9 1 6 10
M  V30 10 2 7 11
M  V30 11 1 7 12
M  V30 12 1 8 13
M  V30 13 2 9 14
M  V30 14 1 11 15
M  V30 15 2 12 16
M  V30 16 1 13 17
M  V30 17 2 13 18
M  V30 18 1 14 19
M  V30 19 2 15 20
M  V30 20 1 17 21
M  V30 21 1 19 22
M  V30 22 1 10 11
M  V30 23 1 14 18
M  V30 24 1 16 20
M  V30 END BOND
M  V30 END CTAB
M  END
>  <Structure No>
450

>  <Catalog ID>
Z32396208

>  <MW (desalted)>
297.309

>  <ClogP>
2.964

>  <HBD>
2

>  <TPSA>
76.240

>  <RotBonds>
4

>  <Target>
Serine/threonine-protein kinase Chk2

>  <fromRegid>
CHEMBL2007002

>  <Similarity>
0.86

$$$$
Compound 451
Actelion Java MolfileCreator 2.0

  0  0  0  0  0  0              0 V3000
M  V30 BEGIN CTAB
M  V30 COUNTS 23 24 0 0 0
M  V30 BEGIN ATOM
M  V30 1 Cl 0.0 0.0 0.0 0
M  V30 2 S 8.1319 0.0945 0.0 0
M  V30 3 O 9.6211 0.1063 0.0 0
M  V30 4 O 6.6189 0.1063 0.0 0
M  V30 5 N 8.12 -1.3947 0.0 0
M  V30 6 C 8.12 1.6074 0.0 0
M  V30 7 C 6.8081 -2.1275 0.0 0
M  V30 8 C 9.4084 2.3639 0.0 0
M  V30 9 C 6.8081 2.3639 0.0 0
M  V30 10 C 6.7962 -3.6168 0.0 0
M  V30 11 C 5.4961 -1.371 0.0 0
M  V30 12 C 9.3966 3.8768 0.0 0
M  V30 13 C 10.6967 1.6311 0.0 0
M  V30 14 C 6.7962 3.8768 0.0 0
M  V30 15 C 5.4843 -4.3496 0.0 0
M  V30 16 C 8.0846 -4.3496 0.0 0
M  V30 17 C 4.1841 -2.1038 0.0 0
M  V30 18 C 10.6849 4.6332 0.0 0
M  V30 19 C 8.0846 4.6332 0.0 0
M  V30 20 C 11.9851 2.3875 0.0 0
M  V30 21 C 4.1723 -3.5931 0.0 0
M  V30 22 N 8.0728 -5.8389 0.0 0
M  V30 23 N 11.9732 3.9004 0.0 0
M  V30 END ATOM
M  V30 BEGIN BOND
M  V30 1 2 2 3
M  V30 2 2 2 4
M  V30 3 1 2 5
M  V30 4 1 2 6
M  V30 5 1 5 7
M  V30 6 1 6 8
M  V30 7 2 6 9
M  V30 8 1 7 10
M  V30 9 1 7 11
M  V30 10 1 8 12
M  V30 11 2 8 13
M  V30 12 1 9 14
M  V30 13 1 10 15
M  V30 14 1 10 16
M  V30 15 1 11 17
M  V30 16 2 12 18
M  V30 17 1 12 19
M  V30 18 1 13 20
M  V30 19 1 15 21
M  V30 20 1 16 22
M  V30 21 1 18 23
M  V30 22 2 14 19
M  V30 23 1 17 21
M  V30 24 2 20 23
M  V30 END BOND
M  V30 END CTAB
M  END
>  <Structure No>
451

>  <Catalog ID>
Z1491326294

>  <MW (desalted)>
319.422

>  <ClogP>
2.727

>  <HBD>
2

>  <TPSA>
85.080

>  <RotBonds>
3

>  <Target>
CHK2

>  <fromRegid>


>  <Similarity>


$$$$
Compound 452
Actelion Java MolfileCreator 2.0

  0  0  0  0  0  0              0 V3000
M  V30 BEGIN CTAB
M  V30 COUNTS 22 24 0 0 0
M  V30 BEGIN ATOM
M  V30 1 S 0.0 0.0 0.0 0
M  V30 2 C 1.2072 0.8995 0.0 0
M  V30 3 C 0.4497 -1.4203 0.0 0
M  V30 4 N 2.4145 0.0236 0.0 0
M  V30 5 C 1.1954 2.4145 0.0 0
M  V30 6 C 1.941 -1.4084 0.0 0
M  V30 7 N 2.4855 3.1838 0.0 0
M  V30 8 C 2.8169 -2.6157 0.0 0
M  V30 9 C 2.4736 4.6988 0.0 0
M  V30 10 O 4.2964 -2.45 0.0 0
M  V30 11 O 2.1896 -3.9768 0.0 0
M  V30 12 O 1.1599 5.4563 0.0 0
M  V30 13 C 3.7638 5.4563 0.0 0
M  V30 14 C 5.0539 4.7106 0.0 0
M  V30 15 C 3.7519 6.9713 0.0 0
M  V30 16 C 6.344 5.4681 0.0 0
M  V30 17 C 5.042 7.7288 0.0 0
M  V30 18 O 7.6341 4.7225 0.0 0
M  V30 19 C 6.3321 6.9831 0.0 0
M  V30 20 C 8.9242 5.48 0.0 0
M  V30 21 O 7.6222 7.7406 0.0 0
M  V30 22 C 8.9124 6.9949 0.0 0
M  V30 END ATOM
M  V30 BEGIN BOND
M  V30 1 1 1 2
M  V30 2 1 1 3
M  V30 3 2 2 4
M  V30 4 1 2 5
M  V30 5 2 3 6
M  V30 6 1 5 7
M  V30 7 1 6 8
M  V30 8 1 7 9
M  V30 9 2 8 10
M  V30 10 1 8 11
M  V30 11 2 9 12
M  V30 12 1 9 13
M  V30 13 2 13 14
M  V30 14 1 13 15
M  V30 15 1 14 16
M  V30 16 2 15 17
M  V30 17 1 16 18
M  V30 18 2 16 19
M  V30 19 1 18 20
M  V30 20 1 19 21
M  V30 21 1 20 22
M  V30 22 1 4 6
M  V30 23 1 17 19
M  V30 24 1 21 22
M  V30 END BOND
M  V30 END CTAB
M  END
>  <Structure No>
452

>  <Catalog ID>
Z1274461220

>  <MW (desalted)>
320.320

>  <ClogP>
1.663

>  <HBD>
2

>  <TPSA>
97.750

>  <RotBonds>
4

>  <Target>
ATM

>  <fromRegid>


>  <Similarity>


$$$$
Compound 453
Actelion Java MolfileCreator 2.0

  0  0  0  0  0  0              0 V3000
M  V30 BEGIN CTAB
M  V30 COUNTS 22 25 0 0 0
M  V30 BEGIN ATOM
M  V30 1 S 0.0 0.0 0.0 0
M  V30 2 C -1.2404 -0.8505 0.0 0
M  V30 3 C 1.1813 -0.8978 0.0 0
M  V30 4 N -2.7171 -0.4961 0.0 0
M  V30 5 C -0.8151 -2.28 0.0 0
M  V30 6 C 0.6733 -2.3036 0.0 0
M  V30 7 C 2.6698 -0.9214 0.0 0
M  V30 8 C -3.7567 -1.583 0.0 0
M  V30 9 C -1.8547 -3.3669 0.0 0
M  V30 10 C 1.8547 -3.2015 0.0 0
M  V30 11 C 3.0951 -2.3509 0.0 0
M  V30 12 N -3.3314 -3.0124 0.0 0
M  V30 13 C -5.2334 -1.2286 0.0 0
M  V30 14 O -1.4294 -4.7963 0.0 0
M  V30 15 N -6.273 -2.3154 0.0 0
M  V30 16 C -7.7497 -1.961 0.0 0
M  V30 17 C -5.8477 -3.7449 0.0 0
M  V30 18 C -8.7894 -3.0479 0.0 0
M  V30 19 C -10.2897 -2.8471 0.0 0
M  V30 20 C -8.5176 -4.5128 0.0 0
M  V30 21 S -10.9394 -4.1938 0.0 0
M  V30 22 C -9.8408 -5.2216 0.0 0
M  V30 END ATOM
M  V30 BEGIN BOND
M  V30 1 1 1 2
M  V30 2 1 1 3
M  V30 3 1 2 4
M  V30 4 2 2 5
M  V30 5 2 3 6
M  V30 6 1 3 7
M  V30 7 2 4 8
M  V30 8 1 5 9
M  V30 9 1 6 10
M  V30 10 1 7 11
M  V30 11 1 8 12
M  V30 12 1 8 13
M  V30 13 2 9 14
M  V30 14 1 13 15
M  V30 15 1 15 16
M  V30 16 1 15 17
M  V30 17 1 16 18
M  V30 18 2 18 19
M  V30 19 1 18 20
M  V30 20 1 19 21
M  V30 21 2 20 22
M  V30 22 1 5 6
M  V30 23 1 9 12
M  V30 24 1 10 11
M  V30 25 1 21 22
M  V30 END BOND
M  V30 END CTAB
M  END
>  <Structure No>
453

>  <Catalog ID>
Z90265831

>  <MW (desalted)>
331.456

>  <ClogP>
2.385

>  <HBD>
1

>  <TPSA>
44.700

>  <RotBonds>
4

>  <Target>
Poly [ADP-ribose] polymerase-1

>  <fromRegid>
CHEMBL3616846

>  <Similarity>
0.93

$$$$
Compound 454
Actelion Java MolfileCreator 2.0

  0  0  0  0  0  0              0 V3000
M  V30 BEGIN CTAB
M  V30 COUNTS 23 24 0 0 0
M  V30 BEGIN ATOM
M  V30 1 Cl 0.0 0.0 0.0 0
M  V30 2 S 5.4927 0.3788 0.0 0
M  V30 3 O 6.9843 0.3906 0.0 0
M  V30 4 O 3.9775 0.3906 0.0 0
M  V30 5 N 5.4809 -1.1127 0.0 0
M  V30 6 C 5.4809 1.894 0.0 0
M  V30 7 C 6.7712 -1.8467 0.0 0
M  V30 8 C 4.1669 -1.8585 0.0 0
M  V30 9 C 6.7712 2.6516 0.0 0
M  V30 10 C 4.1669 2.6516 0.0 0
M  V30 11 C 6.7594 -3.3382 0.0 0 CFG=2
M  V30 12 C 4.155 -3.3501 0.0 0
M  V30 13 C 6.7594 4.1669 0.0 0
M  V30 14 C 8.0615 1.9058 0.0 0
M  V30 15 C 4.155 4.1669 0.0 0
M  V30 16 C 5.4454 -4.0722 0.0 0
M  V30 17 C 8.0497 -4.0722 0.0 0
M  V30 18 N 8.0497 4.9245 0.0 0
M  V30 19 C 5.4454 4.9363 0.0 0
M  V30 20 C 9.3519 2.6635 0.0 0
M  V30 21 N 8.0379 -5.5638 0.0 0
M  V30 22 C 9.34 4.1906 0.0 0
M  V30 23 C 9.3282 -6.2977 0.0 0
M  V30 END ATOM
M  V30 BEGIN BOND
M  V30 1 2 2 3
M  V30 2 2 2 4
M  V30 3 1 2 5
M  V30 4 1 2 6
M  V30 5 1 5 7
M  V30 6 1 5 8
M  V30 7 1 6 9
M  V30 8 2 6 10
M  V30 9 1 7 11
M  V30 10 1 8 12
M  V30 11 1 9 13
M  V30 12 2 9 14
M  V30 13 1 10 15
M  V30 14 1 11 16
M  V30 15 1 11 17 CFG=1
M  V30 16 2 13 18
M  V30 17 1 13 19
M  V30 18 1 14 20
M  V30 19 1 17 21
M  V30 20 1 18 22
M  V30 21 1 21 23
M  V30 22 1 12 16
M  V30 23 2 15 19
M  V30 24 2 20 22
M  V30 END BOND
M  V30 BEGIN COLLECTION
M  V30 MDLV30/STERAC1 ATOMS=(1 11)
M  V30 END COLLECTION
M  V30 END CTAB
M  END
>  <Structure No>
454

>  <Catalog ID>
Z1491218468

>  <MW (desalted)>
319.422

>  <ClogP>
1.307

>  <HBD>
1

>  <TPSA>
62.300

>  <RotBonds>
3

>  <Target>
Serine/threonine-protein kinase Chk1

>  <fromRegid>
CHEMBL2420922

>  <Similarity>
0.86

$$$$
Compound 455
Actelion Java MolfileCreator 2.0

  0  0  0  0  0  0              0 V3000
M  V30 BEGIN CTAB
M  V30 COUNTS 22 24 0 0 0
M  V30 BEGIN ATOM
M  V30 1 O 0.0 0.0 0.0 0
M  V30 2 C -0.0118 -1.4923 0.0 0
M  V30 3 N 1.2791 -2.2266 0.0 0
M  V30 4 C -1.3265 -2.2266 0.0 0
M  V30 5 C 2.5701 -1.4686 0.0 0
M  V30 6 C -2.6412 -1.4686 0.0 0
M  V30 7 C -1.3383 -3.719 0.0 0
M  V30 8 C 3.8611 -2.2029 0.0 0
M  V30 9 C -3.9559 -2.2029 0.0 0
M  V30 10 C -2.653 -4.4652 0.0 0
M  V30 11 C 5.1521 -1.4449 0.0 0
M  V30 12 C -5.2706 -1.4449 0.0 0
M  V30 13 C -3.9677 -3.6953 0.0 0
M  V30 14 C 6.5142 -2.049 0.0 0
M  V30 15 C 5.2942 0.0592 0.0 0
M  V30 16 N -6.5852 -0.6869 0.0 0
M  V30 17 C 7.5091 -0.9238 0.0 0
M  V30 18 C 6.9643 -3.4703 0.0 0
M  V30 19 N 6.7511 0.379 0.0 0
M  V30 20 C 8.9659 -1.2199 0.0 0
M  V30 21 C 8.4211 -3.7664 0.0 0
M  V30 22 C 9.416 -2.6412 0.0 0
M  V30 END ATOM
M  V30 BEGIN BOND
M  V30 1 2 1 2
M  V30 2 1 2 3
M  V30 3 1 2 4
M  V30 4 1 3 5
M  V30 5 2 4 6
M  V30 6 1 4 7
M  V30 7 1 5 8
M  V30 8 1 6 9
M  V30 9 2 7 10
M  V30 10 1 8 11
M  V30 11 1 9 12
M  V30 12 2 9 13
M  V30 13 1 11 14
M  V30 14 2 11 15
M  V30 15 3 12 16
M  V30 16 2 14 17
M  V30 17 1 14 18
M  V30 18 1 15 19
M  V30 19 1 17 20
M  V30 20 2 18 21
M  V30 21 2 20 22
M  V30 22 1 10 13
M  V30 23 1 17 19
M  V30 24 1 21 22
M  V30 END BOND
M  V30 END CTAB
M  END
>  <Structure No>
455

>  <Catalog ID>
Z26394148

>  <MW (desalted)>
289.331

>  <ClogP>
2.849

>  <HBD>
2

>  <TPSA>
68.680

>  <RotBonds>
4

>  <Target>
Poly [ADP-ribose] polymerase-1

>  <fromRegid>
CHEMBL343641

>  <Similarity>
0.9

$$$$
Compound 456
Actelion Java MolfileCreator 2.0

  0  0  0  0  0  0              0 V3000
M  V30 BEGIN CTAB
M  V30 COUNTS 22 24 0 0 0
M  V30 BEGIN ATOM
M  V30 1 O 0.0 0.0 0.0 0
M  V30 2 C -0.0118 -1.4936 0.0 0
M  V30 3 N 1.2803 -2.2286 0.0 0
M  V30 4 C -1.3277 -2.2286 0.0 0
M  V30 5 C 2.5724 -1.4699 0.0 0
M  V30 6 C -1.3395 -3.7223 0.0 0
M  V30 7 C -2.6435 -1.4699 0.0 0
M  V30 8 C 3.8646 -2.2049 0.0 0
M  V30 9 C -2.6554 -4.4692 0.0 0
M  V30 10 C -0.0474 -4.4692 0.0 0
M  V30 11 C -3.9594 -2.2049 0.0 0
M  V30 12 C 5.1567 -1.4462 0.0 0
M  V30 13 C -3.9713 -3.6986 0.0 0
M  V30 14 C 6.52 -2.0508 0.0 0
M  V30 15 C 5.299 0.0592 0.0 0
M  V30 16 C -5.2871 -4.4455 0.0 0
M  V30 17 C 7.5158 -0.9246 0.0 0
M  V30 18 C 6.9705 -3.4734 0.0 0
M  V30 19 N 6.7571 0.3793 0.0 0
M  V30 20 C 8.974 -1.221 0.0 0
M  V30 21 C 8.4286 -3.7697 0.0 0
M  V30 22 C 9.4244 -2.6435 0.0 0
M  V30 END ATOM
M  V30 BEGIN BOND
M  V30 1 2 1 2
M  V30 2 1 2 3
M  V30 3 1 2 4
M  V30 4 1 3 5
M  V30 5 2 4 6
M  V30 6 1 4 7
M  V30 7 1 5 8
M  V30 8 1 6 9
M  V30 9 1 6 10
M  V30 10 2 7 11
M  V30 11 1 8 12
M  V30 12 2 9 13
M  V30 13 1 12 14
M  V30 14 2 12 15
M  V30 15 1 13 16
M  V30 16 2 14 17
M  V30 17 1 14 18
M  V30 18 1 15 19
M  V30 19 1 17 20
M  V30 20 2 18 21
M  V30 21 2 20 22
M  V30 22 1 11 13
M  V30 23 1 17 19
M  V30 24 1 21 22
M  V30 END BOND
M  V30 END CTAB
M  END
>  <Structure No>
456

>  <Catalog ID>
Z26395629

>  <MW (desalted)>
292.375

>  <ClogP>
3.606

>  <HBD>
2

>  <TPSA>
44.890

>  <RotBonds>
4

>  <Target>
Poly [ADP-ribose] polymerase-1

>  <fromRegid>
CHEMBL551001

>  <Similarity>
0.92

$$$$
Compound 457
Actelion Java MolfileCreator 2.0

  0  0  0  0  0  0              0 V3000
M  V30 BEGIN CTAB
M  V30 COUNTS 22 24 0 0 0
M  V30 BEGIN ATOM
M  V30 1 O 0.0 0.0 0.0 0
M  V30 2 C -0.0118 -1.4944 0.0 0
M  V30 3 N 1.2809 -2.2298 0.0 0
M  V30 4 C -1.3284 -2.2298 0.0 0
M  V30 5 C 2.5738 -1.4707 0.0 0
M  V30 6 C -1.3402 -3.7243 0.0 0
M  V30 7 C -2.645 -1.4707 0.0 0
M  V30 8 C 3.8667 -2.2061 0.0 0
M  V30 9 C -2.6568 -4.4716 0.0 0
M  V30 10 C -0.0474 -4.4716 0.0 0
M  V30 11 C -3.9615 -2.2061 0.0 0
M  V30 12 C 5.1595 -1.447 0.0 0
M  V30 13 C -3.9734 -3.7006 0.0 0
M  V30 14 C -2.6687 -5.9661 0.0 0
M  V30 15 C 6.5235 -2.0519 0.0 0
M  V30 16 C 5.3018 0.0593 0.0 0
M  V30 17 C 7.5199 -0.9251 0.0 0
M  V30 18 C 6.9742 -3.4752 0.0 0
M  V30 19 N 6.7607 0.3795 0.0 0
M  V30 20 C 8.9788 -1.2216 0.0 0
M  V30 21 C 8.4332 -3.7718 0.0 0
M  V30 22 C 9.4295 -2.645 0.0 0
M  V30 END ATOM
M  V30 BEGIN BOND
M  V30 1 2 1 2
M  V30 2 1 2 3
M  V30 3 1 2 4
M  V30 4 1 3 5
M  V30 5 2 4 6
M  V30 6 1 4 7
M  V30 7 1 5 8
M  V30 8 1 6 9
M  V30 9 1 6 10
M  V30 10 2 7 11
M  V30 11 1 8 12
M  V30 12 2 9 13
M  V30 13 1 9 14
M  V30 14 1 12 15
M  V30 15 2 12 16
M  V30 16 2 15 17
M  V30 17 1 15 18
M  V30 18 1 16 19
M  V30 19 1 17 20
M  V30 20 2 18 21
M  V30 21 2 20 22
M  V30 22 1 11 13
M  V30 23 1 17 19
M  V30 24 1 21 22
M  V30 END BOND
M  V30 END CTAB
M  END
>  <Structure No>
457

>  <Catalog ID>
Z26395598

>  <MW (desalted)>
292.375

>  <ClogP>
3.556

>  <HBD>
2

>  <TPSA>
44.890

>  <RotBonds>
4

>  <Target>
Poly [ADP-ribose] polymerase-1

>  <fromRegid>
CHEMBL551001

>  <Similarity>
0.91

$$$$
Compound 458
Actelion Java MolfileCreator 2.0

  0  0  0  0  0  0              0 V3000
M  V30 BEGIN CTAB
M  V30 COUNTS 22 24 0 0 0
M  V30 BEGIN ATOM
M  V30 1 O 0.0 0.0 0.0 0
M  V30 2 C -0.0118 -1.4933 0.0 0
M  V30 3 N 1.28 -2.2282 0.0 0
M  V30 4 C -1.3274 -2.2282 0.0 0
M  V30 5 C 2.5719 -1.4696 0.0 0
M  V30 6 C -1.3393 -3.7216 0.0 0
M  V30 7 C -2.643 -1.4696 0.0 0
M  V30 8 C 3.8638 -2.2045 0.0 0
M  V30 9 C -2.6549 -4.4683 0.0 0
M  V30 10 C -3.9586 -2.2045 0.0 0
M  V30 11 C 5.1557 -1.4459 0.0 0
M  V30 12 C -3.9705 -3.6979 0.0 0
M  V30 13 C -2.6667 -5.9617 0.0 0
M  V30 14 C -5.2742 -1.4459 0.0 0
M  V30 15 C 6.5187 -2.0504 0.0 0
M  V30 16 C 5.2979 0.0592 0.0 0
M  V30 17 C 7.5143 -0.9244 0.0 0
M  V30 18 C 6.9691 -3.4727 0.0 0
M  V30 19 N 6.7558 0.3792 0.0 0
M  V30 20 C 8.9722 -1.2207 0.0 0
M  V30 21 C 8.427 -3.769 0.0 0
M  V30 22 C 9.4226 -2.643 0.0 0
M  V30 END ATOM
M  V30 BEGIN BOND
M  V30 1 2 1 2
M  V30 2 1 2 3
M  V30 3 1 2 4
M  V30 4 1 3 5
M  V30 5 2 4 6
M  V30 6 1 4 7
M  V30 7 1 5 8
M  V30 8 1 6 9
M  V30 9 2 7 10
M  V30 10 1 8 11
M  V30 11 2 9 12
M  V30 12 1 9 13
M  V30 13 1 10 14
M  V30 14 1 11 15
M  V30 15 2 11 16
M  V30 16 2 15 17
M  V30 17 1 15 18
M  V30 18 1 16 19
M  V30 19 1 17 20
M  V30 20 2 18 21
M  V30 21 2 20 22
M  V30 22 1 10 12
M  V30 23 1 17 19
M  V30 24 1 21 22
M  V30 END BOND
M  V30 END CTAB
M  END
>  <Structure No>
458

>  <Catalog ID>
Z26395572

>  <MW (desalted)>
292.375

>  <ClogP>
3.946

>  <HBD>
2

>  <TPSA>
44.890

>  <RotBonds>
4

>  <Target>
Poly [ADP-ribose] polymerase-1

>  <fromRegid>
CHEMBL343641

>  <Similarity>
0.94

$$$$
Compound 459
Actelion Java MolfileCreator 2.0

  0  0  0  0  0  0              0 V3000
M  V30 BEGIN CTAB
M  V30 COUNTS 22 24 0 0 0
M  V30 BEGIN ATOM
M  V30 1 O 0.0 0.0 0.0 0
M  V30 2 C -0.0118 -1.4936 0.0 0
M  V30 3 N 1.2802 -2.2286 0.0 0
M  V30 4 C -1.3276 -2.2286 0.0 0
M  V30 5 C 2.5723 -1.4699 0.0 0
M  V30 6 C -1.3395 -3.7222 0.0 0
M  V30 7 C -2.6435 -1.4699 0.0 0
M  V30 8 C 3.8644 -2.2048 0.0 0
M  V30 9 C -2.6553 -4.469 0.0 0
M  V30 10 C -3.9593 -2.2048 0.0 0
M  V30 11 C 5.1566 -1.4462 0.0 0
M  V30 12 C -3.9711 -3.6985 0.0 0
M  V30 13 C -2.6672 -5.9626 0.0 0
M  V30 14 C 6.5198 -2.0507 0.0 0
M  V30 15 C 5.2988 0.0592 0.0 0
M  V30 16 C -5.287 -4.4453 0.0 0
M  V30 17 C 7.5156 -0.9246 0.0 0
M  V30 18 C 6.9703 -3.4733 0.0 0
M  V30 19 N 6.7569 0.3793 0.0 0
M  V30 20 C 8.9736 -1.2209 0.0 0
M  V30 21 C 8.4283 -3.7696 0.0 0
M  V30 22 C 9.4241 -2.6435 0.0 0
M  V30 END ATOM
M  V30 BEGIN BOND
M  V30 1 2 1 2
M  V30 2 1 2 3
M  V30 3 1 2 4
M  V30 4 1 3 5
M  V30 5 2 4 6
M  V30 6 1 4 7
M  V30 7 1 5 8
M  V30 8 1 6 9
M  V30 9 2 7 10
M  V30 10 1 8 11
M  V30 11 2 9 12
M  V30 12 1 9 13
M  V30 13 1 11 14
M  V30 14 2 11 15
M  V30 15 1 12 16
M  V30 16 2 14 17
M  V30 17 1 14 18
M  V30 18 1 15 19
M  V30 19 1 17 20
M  V30 20 2 18 21
M  V30 21 2 20 22
M  V30 22 1 10 12
M  V30 23 1 17 19
M  V30 24 1 21 22
M  V30 END BOND
M  V30 END CTAB
M  END
>  <Structure No>
459

>  <Catalog ID>
Z26395677

>  <MW (desalted)>
292.375

>  <ClogP>
3.896

>  <HBD>
2

>  <TPSA>
44.890

>  <RotBonds>
4

>  <Target>
Poly [ADP-ribose] polymerase-1

>  <fromRegid>
CHEMBL343641

>  <Similarity>
0.92

$$$$
Compound 460
Actelion Java MolfileCreator 2.0

  0  0  0  0  0  0              0 V3000
M  V30 BEGIN CTAB
M  V30 COUNTS 23 26 0 0 0
M  V30 BEGIN ATOM
M  V30 1 O 0.0 0.0 0.0 0
M  V30 2 C -1.3144 -0.7342 0.0 0
M  V30 3 O -2.6289 0.0236 0.0 0
M  V30 4 C -1.3263 -2.2263 0.0 0
M  V30 5 C -2.6408 -2.9605 0.0 0
M  V30 6 C -0.0355 -2.9605 0.0 0
M  V30 7 C -2.6526 -4.4526 0.0 0
M  V30 8 C -3.9553 -2.2026 0.0 0
M  V30 9 C -0.0473 -4.4526 0.0 0
M  V30 10 C 1.3855 -2.4868 0.0 0
M  V30 11 N -1.3618 -5.1869 0.0 0
M  V30 12 C -3.9671 -5.1869 0.0 0
M  V30 13 C -5.2698 -2.9368 0.0 0
M  V30 14 C 1.3737 -4.9027 0.0 0
M  V30 15 C 2.2618 -3.6947 0.0 0
M  V30 16 C -5.2816 -4.429 0.0 0
M  V30 17 C 1.8237 -6.3237 0.0 0
M  V30 18 C 0.8052 -7.4251 0.0 0
M  V30 19 C 1.2552 -8.8461 0.0 0
M  V30 20 C -0.675 -7.1053 0.0 0
M  V30 21 C 0.2368 -9.9475 0.0 0
M  V30 22 C -1.6934 -8.2066 0.0 0
M  V30 23 C -1.2434 -9.6277 0.0 0
M  V30 END ATOM
M  V30 BEGIN BOND
M  V30 1 2 1 2
M  V30 2 1 2 3
M  V30 3 1 2 4
M  V30 4 1 4 5
M  V30 5 2 4 6
M  V30 6 1 5 7
M  V30 7 2 5 8
M  V30 8 1 6 9
M  V30 9 1 6 10
M  V30 10 1 7 11
M  V30 11 2 7 12
M  V30 12 1 8 13
M  V30 13 1 9 14
M  V30 14 1 10 15
M  V30 15 1 12 16
M  V30 16 2 14 17 CFG=2
M  V30 17 1 17 18
M  V30 18 2 18 19
M  V30 19 1 18 20
M  V30 20 1 19 21
M  V30 21 2 20 22
M  V30 22 2 21 23
M  V30 23 2 9 11
M  V30 24 2 13 16
M  V30 25 1 14 15
M  V30 26 1 22 23
M  V30 END BOND
M  V30 END CTAB
M  END
>  <Structure No>
460

>  <Catalog ID>
Z46108263

>  <MW (desalted)>
301.339

>  <ClogP>
4.979

>  <HBD>
1

>  <TPSA>
50.190

>  <RotBonds>
2

>  <Target>
Serine/threonine-protein kinase Chk2

>  <fromRegid>
CHEMBL1996831

>  <Similarity>
0.93

$$$$
Compound 461
Actelion Java MolfileCreator 2.0

  0  0  0  0  0  0              0 V3000
M  V30 BEGIN CTAB
M  V30 COUNTS 23 24 0 0 0
M  V30 BEGIN ATOM
M  V30 1 O 0.0 0.0 0.0 0
M  V30 2 C 1.2832 0.7652 0.0 0
M  V30 3 O 2.5664 0.0235 0.0 0
M  V30 4 C 1.2714 2.2721 0.0 0
M  V30 5 C -0.0353 3.0255 0.0 0
M  V30 6 C 2.5546 3.0255 0.0 0
M  V30 7 N -1.342 2.2956 0.0 0
M  V30 8 C -0.047 4.5325 0.0 0
M  V30 9 C 2.5429 4.5325 0.0 0
M  V30 10 C -2.6488 3.0491 0.0 0
M  V30 11 C 1.2361 5.2977 0.0 0
M  V30 12 O 3.8261 5.2977 0.0 0
M  V30 13 O -2.6606 4.556 0.0 0
M  V30 14 C -3.9556 2.3192 0.0 0
M  V30 15 O 1.2243 6.8046 0.0 0
M  V30 16 C 5.1093 4.556 0.0 0
M  V30 17 C -5.2624 3.0726 0.0 0
M  V30 18 C -3.9674 0.8358 0.0 0
M  V30 19 C -0.0824 7.558 0.0 0
M  V30 20 C -6.5691 2.3427 0.0 0
M  V30 21 C -5.2741 0.0941 0.0 0
M  V30 22 C -6.5809 0.8594 0.0 0
M  V30 23 C -7.8759 3.0962 0.0 0
M  V30 END ATOM
M  V30 BEGIN BOND
M  V30 1 2 1 2
M  V30 2 1 2 3
M  V30 3 1 2 4
M  V30 4 2 4 5
M  V30 5 1 4 6
M  V30 6 1 5 7
M  V30 7 1 5 8
M  V30 8 2 6 9
M  V30 9 1 7 10
M  V30 10 2 8 11
M  V30 11 1 9 12
M  V30 12 2 10 13
M  V30 13 1 10 14
M  V30 14 1 11 15
M  V30 15 1 12 16
M  V30 16 2 14 17
M  V30 17 1 14 18
M  V30 18 1 15 19
M  V30 19 1 17 20
M  V30 20 2 18 21
M  V30 21 2 20 22
M  V30 22 1 20 23
M  V30 23 1 9 11
M  V30 24 1 21 22
M  V30 END BOND
M  V30 END CTAB
M  END
>  <Structure No>
461

>  <Catalog ID>
Z57161389

>  <MW (desalted)>
315.321

>  <ClogP>
3.466

>  <HBD>
2

>  <TPSA>
84.860

>  <RotBonds>
5

>  <Target>
Serine/threonine-protein kinase Chk1

>  <fromRegid>
CHEMBL1997495

>  <Similarity>
0.94

$$$$
Compound 462
Actelion Java MolfileCreator 2.0

  0  0  0  0  0  0              0 V3000
M  V30 BEGIN CTAB
M  V30 COUNTS 23 24 0 0 0
M  V30 BEGIN ATOM
M  V30 1 O 0.0 0.0 0.0 0
M  V30 2 C 1.2834 0.7653 0.0 0
M  V30 3 O 2.5668 0.0235 0.0 0
M  V30 4 C 1.2716 2.2725 0.0 0
M  V30 5 C -0.0353 3.026 0.0 0
M  V30 6 C 2.555 3.026 0.0 0
M  V30 7 N -1.3423 2.296 0.0 0
M  V30 8 C -0.047 4.5332 0.0 0
M  V30 9 C 2.5433 4.5332 0.0 0
M  V30 10 C -2.6492 3.0496 0.0 0
M  V30 11 C 1.2363 5.2985 0.0 0
M  V30 12 O 3.8267 5.2985 0.0 0
M  V30 13 O -2.661 4.5567 0.0 0
M  V30 14 C -3.9562 2.3196 0.0 0
M  V30 15 O 1.2245 6.8057 0.0 0
M  V30 16 C 5.1101 4.5567 0.0 0
M  V30 17 C -3.968 0.8359 0.0 0
M  V30 18 C -5.2632 3.0731 0.0 0
M  V30 19 C -0.0824 7.5593 0.0 0
M  V30 20 C -5.275 0.0941 0.0 0
M  V30 21 C -6.5702 2.3431 0.0 0
M  V30 22 C -6.582 0.8595 0.0 0
M  V30 23 C -7.889 0.1177 0.0 0
M  V30 END ATOM
M  V30 BEGIN BOND
M  V30 1 2 1 2
M  V30 2 1 2 3
M  V30 3 1 2 4
M  V30 4 2 4 5
M  V30 5 1 4 6
M  V30 6 1 5 7
M  V30 7 1 5 8
M  V30 8 2 6 9
M  V30 9 1 7 10
M  V30 10 2 8 11
M  V30 11 1 9 12
M  V30 12 2 10 13
M  V30 13 1 10 14
M  V30 14 1 11 15
M  V30 15 1 12 16
M  V30 16 2 14 17
M  V30 17 1 14 18
M  V30 18 1 15 19
M  V30 19 1 17 20
M  V30 20 2 18 21
M  V30 21 2 20 22
M  V30 22 1 22 23
M  V30 23 1 9 11
M  V30 24 1 21 22
M  V30 END BOND
M  V30 END CTAB
M  END
>  <Structure No>
462

>  <Catalog ID>
Z85891688

>  <MW (desalted)>
315.321

>  <ClogP>
3.466

>  <HBD>
2

>  <TPSA>
84.860

>  <RotBonds>
5

>  <Target>
Serine/threonine-protein kinase Chk1

>  <fromRegid>
CHEMBL1997495

>  <Similarity>
0.96

$$$$
Compound 463
Actelion Java MolfileCreator 2.0

  0  0  0  0  0  0              0 V3000
M  V30 BEGIN CTAB
M  V30 COUNTS 23 24 0 0 0
M  V30 BEGIN ATOM
M  V30 1 O 0.0 0.0 0.0 0
M  V30 2 C 1.2938 -0.7359 0.0 0
M  V30 3 N 2.5876 0.0237 0.0 0
M  V30 4 C 1.2819 -2.2315 0.0 0
M  V30 5 C -0.0356 -2.9794 0.0 0
M  V30 6 C 2.5758 -2.9794 0.0 0
M  V30 7 C -0.0474 -4.475 0.0 0
M  V30 8 C 2.5639 -4.475 0.0 0
M  V30 9 N -1.365 -5.2109 0.0 0
M  V30 10 C 1.2463 -5.2109 0.0 0
M  V30 11 C -1.3769 -6.7066 0.0 0
M  V30 12 O -2.6945 -7.4425 0.0 0
M  V30 13 C -0.083 -7.4425 0.0 0
M  V30 14 C -0.0949 -8.9382 0.0 0
M  V30 15 C 1.365 -8.5939 0.0 0
M  V30 16 C 0.546 -10.2795 0.0 0
M  V30 17 C -1.5787 -8.5939 0.0 0
M  V30 18 O 2.374 -9.686 0.0 0
M  V30 19 O 1.7923 -7.1458 0.0 0
M  V30 20 C -0.1187 -11.6208 0.0 0
M  V30 21 C -2.7657 -9.5198 0.0 0
M  V30 22 C -1.6024 -11.9413 0.0 0
M  V30 23 C -2.7776 -11.0154 0.0 0
M  V30 END ATOM
M  V30 BEGIN BOND
M  V30 1 2 1 2
M  V30 2 1 2 3
M  V30 3 1 2 4
M  V30 4 2 4 5
M  V30 5 1 4 6
M  V30 6 1 5 7
M  V30 7 2 6 8
M  V30 8 1 7 9
M  V30 9 2 7 10
M  V30 10 1 9 11
M  V30 11 2 11 12
M  V30 12 1 11 13
M  V30 13 1 13 14
M  V30 14 1 14 15
M  V30 15 1 14 16
M  V30 16 1 14 17
M  V30 17 2 15 18
M  V30 18 1 15 19
M  V30 19 1 16 20
M  V30 20 1 17 21
M  V30 21 1 20 22
M  V30 22 1 21 23
M  V30 23 1 8 10
M  V30 24 1 22 23
M  V30 END BOND
M  V30 END CTAB
M  END
>  <Structure No>
463

>  <Catalog ID>
Z221346210

>  <MW (desalted)>
318.368

>  <ClogP>
2.331

>  <HBD>
3

>  <TPSA>
109.490

>  <RotBonds>
5

>  <Target>
Poly [ADP-ribose] polymerase-1

>  <fromRegid>
CHEMBL3414766

>  <Similarity>
0.93

$$$$
Compound 464
Actelion Java MolfileCreator 2.0

  0  0  0  0  0  0              0 V3000
M  V30 BEGIN CTAB
M  V30 COUNTS 23 24 0 0 0
M  V30 BEGIN ATOM
M  V30 1 O 0.0 0.0 0.0 0
M  V30 2 C 1.2923 -0.7469 0.0 0
M  V30 3 N 2.5846 0.0118 0.0 0
M  V30 4 C 1.2804 -2.2408 0.0 0
M  V30 5 C 2.5727 1.5294 0.0 0
M  V30 6 C -0.0355 -2.9877 0.0 0
M  V30 7 C 2.5727 -2.9877 0.0 0
M  V30 8 C -0.0474 -4.4816 0.0 0
M  V30 9 C 2.5609 -4.4816 0.0 0
M  V30 10 N -1.3634 -5.2167 0.0 0
M  V30 11 C 1.2448 -5.2167 0.0 0
M  V30 12 C -1.3753 -6.7105 0.0 0
M  V30 13 O -2.6913 -7.4575 0.0 0
M  V30 14 C -0.0829 -7.4575 0.0 0
M  V30 15 C -0.0948 -8.9513 0.0 0
M  V30 16 C 1.3753 -8.6787 0.0 0
M  V30 17 C 0.4031 -10.3504 0.0 0
M  V30 18 C -1.5887 -8.6787 0.0 0
M  V30 19 O 2.3356 -9.8168 0.0 0
M  V30 20 O 1.8732 -7.2559 0.0 0
M  V30 21 C -0.5809 -11.4886 0.0 0
M  V30 22 C -2.5727 -9.8168 0.0 0
M  V30 23 C -2.0748 -11.2159 0.0 0
M  V30 END ATOM
M  V30 BEGIN BOND
M  V30 1 2 1 2
M  V30 2 1 2 3
M  V30 3 1 2 4
M  V30 4 1 3 5
M  V30 5 2 4 6
M  V30 6 1 4 7
M  V30 7 1 6 8
M  V30 8 2 7 9
M  V30 9 1 8 10
M  V30 10 2 8 11
M  V30 11 1 10 12
M  V30 12 2 12 13
M  V30 13 1 12 14
M  V30 14 1 14 15
M  V30 15 1 15 16
M  V30 16 1 15 17
M  V30 17 1 15 18
M  V30 18 2 16 19
M  V30 19 1 16 20
M  V30 20 1 17 21
M  V30 21 1 18 22
M  V30 22 1 21 23
M  V30 23 1 9 11
M  V30 24 1 22 23
M  V30 END BOND
M  V30 END CTAB
M  END
>  <Structure No>
464

>  <Catalog ID>
Z169864340

>  <MW (desalted)>
318.368

>  <ClogP>
1.978

>  <HBD>
3

>  <TPSA>
95.500

>  <RotBonds>
5

>  <Target>
Poly [ADP-ribose] polymerase-1

>  <fromRegid>
CHEMBL3414766

>  <Similarity>
0.89

$$$$
Compound 465
Actelion Java MolfileCreator 2.0

  0  0  0  0  0  0              0 V3000
M  V30 BEGIN CTAB
M  V30 COUNTS 23 24 0 0 0
M  V30 BEGIN ATOM
M  V30 1 O 0.0 0.0 0.0 0
M  V30 2 C 1.2864 -0.7435 0.0 0
M  V30 3 O 2.5728 0.0118 0.0 0
M  V30 4 C 1.2745 -2.2305 0.0 0
M  V30 5 C 3.8592 -0.7317 0.0 0
M  V30 6 C -0.0354 -2.974 0.0 0
M  V30 7 C 2.5609 -2.974 0.0 0
M  V30 8 N -1.3454 -2.2069 0.0 0
M  V30 9 C -0.0472 -4.461 0.0 0
M  V30 10 C 2.5491 -4.461 0.0 0
M  V30 11 C -2.6554 -2.9504 0.0 0
M  V30 12 C 1.2391 -5.1928 0.0 0
M  V30 13 O -2.6672 -4.4374 0.0 0
M  V30 14 C -3.9654 -2.1833 0.0 0
M  V30 15 C -3.9772 -0.6727 0.0 0
M  V30 16 C -5.2754 -2.9268 0.0 0
M  V30 17 C -5.2872 0.0826 0.0 0
M  V30 18 C -6.5854 -2.1597 0.0 0
M  V30 19 O -5.299 1.5932 0.0 0
M  V30 20 C -6.5972 -0.6609 0.0 0
M  V30 21 C -4.0126 2.3485 0.0 0
M  V30 22 O -7.9072 0.0944 0.0 0
M  V30 23 C -9.2172 -0.6491 0.0 0
M  V30 END ATOM
M  V30 BEGIN BOND
M  V30 1 2 1 2
M  V30 2 1 2 3
M  V30 3 1 2 4
M  V30 4 1 3 5
M  V30 5 2 4 6
M  V30 6 1 4 7
M  V30 7 1 6 8
M  V30 8 1 6 9
M  V30 9 2 7 10
M  V30 10 1 8 11
M  V30 11 2 9 12
M  V30 12 2 11 13
M  V30 13 1 11 14
M  V30 14 2 14 15
M  V30 15 1 14 16
M  V30 16 1 15 17
M  V30 17 2 16 18
M  V30 18 1 17 19
M  V30 19 2 17 20
M  V30 20 1 19 21
M  V30 21 1 20 22
M  V30 22 1 22 23
M  V30 23 1 10 12
M  V30 24 1 18 20
M  V30 END BOND
M  V30 END CTAB
M  END
>  <Structure No>
465

>  <Catalog ID>
Z27656157

>  <MW (desalted)>
315.321

>  <ClogP>
2.860

>  <HBD>
1

>  <TPSA>
73.860

>  <RotBonds>
6

>  <Target>
Serine/threonine-protein kinase Chk1

>  <fromRegid>
CHEMBL1997495

>  <Similarity>
0.95

$$$$
Compound 466
Actelion Java MolfileCreator 2.0

  0  0  0  0  0  0              0 V3000
M  V30 BEGIN CTAB
M  V30 COUNTS 23 24 0 0 0
M  V30 BEGIN ATOM
M  V30 1 O 0.0 0.0 0.0 0
M  V30 2 C 1.2932 -0.7474 0.0 0
M  V30 3 N 2.5865 0.0118 0.0 0
M  V30 4 C 1.2814 -2.2424 0.0 0
M  V30 5 C -0.0355 -2.9899 0.0 0
M  V30 6 C 2.5746 -2.9899 0.0 0
M  V30 7 C -0.0474 -4.4849 0.0 0
M  V30 8 C 2.5628 -4.4849 0.0 0
M  V30 9 N -1.3644 -5.2323 0.0 0
M  V30 10 C 1.2458 -5.2323 0.0 0
M  V30 11 C -1.3763 -6.7273 0.0 0
M  V30 12 O -0.083 -7.4748 0.0 0
M  V30 13 C -2.6933 -7.4748 0.0 0
M  V30 14 C -2.7051 -8.9698 0.0 0
M  V30 15 C -1.2339 -8.6969 0.0 0
M  V30 16 C -3.2272 -10.3698 0.0 0
M  V30 17 C -4.2001 -8.6969 0.0 0
M  V30 18 C -0.2728 -9.8359 0.0 0
M  V30 19 C -2.2661 -11.5088 0.0 0
M  V30 20 C -5.1849 -9.8359 0.0 0
M  V30 21 C -0.7949 -11.236 0.0 0
M  V30 22 O -4.6866 -11.236 0.0 0
M  V30 23 O -6.6799 -9.563 0.0 0
M  V30 END ATOM
M  V30 BEGIN BOND
M  V30 1 2 1 2
M  V30 2 1 2 3
M  V30 3 1 2 4
M  V30 4 2 4 5
M  V30 5 1 4 6
M  V30 6 1 5 7
M  V30 7 2 6 8
M  V30 8 1 7 9
M  V30 9 2 7 10
M  V30 10 1 9 11
M  V30 11 2 11 12
M  V30 12 1 11 13
M  V30 13 1 13 14
M  V30 14 1 14 15
M  V30 15 1 14 16
M  V30 16 1 14 17
M  V30 17 1 15 18
M  V30 18 1 16 19
M  V30 19 1 17 20
M  V30 20 1 18 21
M  V30 21 2 20 22
M  V30 22 1 20 23
M  V30 23 1 8 10
M  V30 24 1 19 21
M  V30 END BOND
M  V30 END CTAB
M  END
>  <Structure No>
466

>  <Catalog ID>
Z221346194

>  <MW (desalted)>
318.368

>  <ClogP>
2.236

>  <HBD>
3

>  <TPSA>
109.490

>  <RotBonds>
6

>  <Target>
Poly [ADP-ribose] polymerase-1

>  <fromRegid>
CHEMBL3414770

>  <Similarity>
0.9

$$$$
Compound 467
Actelion Java MolfileCreator 2.0

  0  0  0  0  0  0              0 V3000
M  V30 BEGIN CTAB
M  V30 COUNTS 23 25 0 0 0
M  V30 BEGIN ATOM
M  V30 1 O 0.0 0.0 0.0 0
M  V30 2 C -1.3087 -0.7428 0.0 0
M  V30 3 O -1.3205 -2.2284 0.0 0
M  V30 4 C -2.6175 0.0235 0.0 0
M  V30 5 C -2.6293 1.5327 0.0 0
M  V30 6 C -3.9263 -0.7192 0.0 0
M  V30 7 C -3.9381 2.2874 0.0 0
M  V30 8 C -5.235 0.0471 0.0 0
M  V30 9 C -5.2468 1.5563 0.0 0
M  V30 10 C -3.9499 3.7966 0.0 0
M  V30 11 N -2.6647 4.563 0.0 0
M  V30 12 C -2.6765 6.0722 0.0 0
M  V30 13 O -3.9852 6.8268 0.0 0
M  V30 14 C -1.3913 6.8268 0.0 0
M  V30 15 C -0.1061 6.084 0.0 0
M  V30 16 C -1.4031 8.336 0.0 0
M  V30 17 C 1.179 6.8386 0.0 0
M  V30 18 C -0.1179 9.0906 0.0 0
M  V30 19 O 2.4642 6.0958 0.0 0
M  V30 20 C 1.1672 8.3478 0.0 0
M  V30 21 C 3.7494 6.8504 0.0 0
M  V30 22 O 2.4524 9.1024 0.0 0
M  V30 23 C 3.7376 8.3596 0.0 0
M  V30 END ATOM
M  V30 BEGIN BOND
M  V30 1 2 1 2
M  V30 2 1 2 3
M  V30 3 1 2 4
M  V30 4 2 4 5
M  V30 5 1 4 6
M  V30 6 1 5 7
M  V30 7 2 6 8
M  V30 8 2 7 9
M  V30 9 1 7 10
M  V30 10 1 10 11
M  V30 11 1 11 12
M  V30 12 2 12 13
M  V30 13 1 12 14
M  V30 14 2 14 15
M  V30 15 1 14 16
M  V30 16 1 15 17
M  V30 17 2 16 18
M  V30 18 1 17 19
M  V30 19 2 17 20
M  V30 20 1 19 21
M  V30 21 1 20 22
M  V30 22 1 21 23
M  V30 23 1 8 9
M  V30 24 1 18 20
M  V30 25 1 22 23
M  V30 END BOND
M  V30 END CTAB
M  END
>  <Structure No>
467

>  <Catalog ID>
Z600504866

>  <MW (desalted)>
313.305

>  <ClogP>
2.717

>  <HBD>
2

>  <TPSA>
84.860

>  <RotBonds>
4

>  <Target>
ATM

>  <fromRegid>


>  <Similarity>


$$$$
Compound 468
Actelion Java MolfileCreator 2.0

  0  0  0  0  0  0              0 V3000
M  V30 BEGIN CTAB
M  V30 COUNTS 23 25 0 0 0
M  V30 BEGIN ATOM
M  V30 1 Cl 0.0 0.0 0.0 0
M  V30 2 C 1.2969 -0.7376 0.0 0
M  V30 3 C 2.5938 0.0237 0.0 0
M  V30 4 C 1.285 -2.2368 0.0 0
M  V30 5 C 3.8907 -0.7139 0.0 0
M  V30 6 C 2.5819 -2.9745 0.0 0
M  V30 7 C 3.8788 -2.213 0.0 0
M  V30 8 C 5.1757 -2.9507 0.0 0
M  V30 9 C 6.4727 -2.1892 0.0 0
M  V30 10 N 7.7696 -2.9269 0.0 0
M  V30 11 C 9.0665 -2.1655 0.0 0
M  V30 12 O 9.0546 -0.6425 0.0 0
M  V30 13 C 10.3634 -2.9032 0.0 0
M  V30 14 N 11.6603 -2.1417 0.0 0
M  V30 15 C 10.3515 -4.4023 0.0 0
M  V30 16 N 12.9573 -2.8794 0.0 0
M  V30 17 C 11.6484 -5.14 0.0 0
M  V30 18 C 9.0308 -5.14 0.0 0
M  V30 19 C 12.9454 -4.3785 0.0 0
M  V30 20 C 11.6366 -6.6392 0.0 0
M  V30 21 C 9.0189 -6.6392 0.0 0
M  V30 22 O 14.2423 -5.1162 0.0 0
M  V30 23 C 10.3158 -7.3888 0.0 0
M  V30 END ATOM
M  V30 BEGIN BOND
M  V30 1 1 1 2
M  V30 2 2 2 3
M  V30 3 1 2 4
M  V30 4 1 3 5
M  V30 5 2 4 6
M  V30 6 2 5 7
M  V30 7 1 7 8
M  V30 8 1 8 9
M  V30 9 1 9 10
M  V30 10 1 10 11
M  V30 11 2 11 12
M  V30 12 1 11 13
M  V30 13 2 13 14
M  V30 14 1 13 15
M  V30 15 1 14 16
M  V30 16 2 15 17
M  V30 17 1 15 18
M  V30 18 1 16 19
M  V30 19 1 17 20
M  V30 20 2 18 21
M  V30 21 2 19 22
M  V30 22 2 20 23
M  V30 23 1 6 7
M  V30 24 1 17 19
M  V30 25 1 21 23
M  V30 END BOND
M  V30 END CTAB
M  END
>  <Structure No>
468

>  <Catalog ID>
Z26420358

>  <MW (desalted)>
327.765

>  <ClogP>
2.002

>  <HBD>
2

>  <TPSA>
70.560

>  <RotBonds>
4

>  <Target>
parp10

>  <fromRegid>


>  <Similarity>


$$$$
Compound 469
Actelion Java MolfileCreator 2.0

  0  0  0  0  0  0              0 V3000
M  V30 BEGIN CTAB
M  V30 COUNTS 23 25 0 0 0
M  V30 BEGIN ATOM
M  V30 1 Cl 0.0 0.0 0.0 0
M  V30 2 C -1.3057 -0.7293 0.0 0
M  V30 3 C -2.6115 0.0235 0.0 0
M  V30 4 C -1.3175 -2.2116 0.0 0
M  V30 5 C -3.9173 -0.7058 0.0 0
M  V30 6 C -2.6233 -2.9527 0.0 0
M  V30 7 N -5.2231 0.047 0.0 0
M  V30 8 C -3.9291 -2.188 0.0 0
M  V30 9 C -6.5289 -0.6823 0.0 0
M  V30 10 C -5.2349 -2.9292 0.0 0
M  V30 11 N -6.5407 -2.1645 0.0 0
M  V30 12 C -7.8347 0.0705 0.0 0
M  V30 13 O -5.2467 -4.4114 0.0 0
M  V30 14 N -7.8465 1.5763 0.0 0
M  V30 15 C -9.1523 2.3292 0.0 0 CFG=2
M  V30 16 C -9.164 3.835 0.0 0
M  V30 17 C -10.4581 1.5998 0.0 0
M  V30 18 C -10.4698 4.5879 0.0 0
M  V30 19 C -7.8818 4.5879 0.0 0
M  V30 20 C -10.4816 6.0937 0.0 0
M  V30 21 C -7.8935 6.0937 0.0 0
M  V30 22 C -9.1993 6.8583 0.0 0
M  V30 23 Cl -9.2111 8.3641 0.0 0
M  V30 END ATOM
M  V30 BEGIN BOND
M  V30 1 1 1 2
M  V30 2 2 2 3
M  V30 3 1 2 4
M  V30 4 1 3 5
M  V30 5 2 4 6
M  V30 6 1 5 7
M  V30 7 2 5 8
M  V30 8 2 7 9
M  V30 9 1 8 10
M  V30 10 1 9 11
M  V30 11 1 9 12
M  V30 12 2 10 13
M  V30 13 1 12 14
M  V30 14 1 15 14 CFG=1
M  V30 15 1 15 16
M  V30 16 1 15 17
M  V30 17 2 16 18
M  V30 18 1 16 19
M  V30 19 1 18 20
M  V30 20 2 19 21
M  V30 21 2 20 22
M  V30 22 1 22 23
M  V30 23 1 6 8
M  V30 24 1 10 11
M  V30 25 1 21 22
M  V30 END BOND
M  V30 BEGIN COLLECTION
M  V30 MDLV30/STERAC1 ATOMS=(1 15)
M  V30 END COLLECTION
M  V30 END CTAB
M  END
>  <Structure No>
469

>  <Catalog ID>
Z44470832

>  <MW (desalted)>
348.227

>  <ClogP>
2.624

>  <HBD>
2

>  <TPSA>
53.490

>  <RotBonds>
4

>  <Target>
parp10

>  <fromRegid>


>  <Similarity>


$$$$
Compound 470
Actelion Java MolfileCreator 2.0

  0  0  0  0  0  0              0 V3000
M  V30 BEGIN CTAB
M  V30 COUNTS 23 25 0 0 0
M  V30 BEGIN ATOM
M  V30 1 Cl 0.0 0.0 0.0 0
M  V30 2 C -0.0118 -1.4898 0.0 0
M  V30 3 C -1.3243 -2.2229 0.0 0
M  V30 4 C 1.277 -2.2229 0.0 0
M  V30 5 C -1.3361 -3.7128 0.0 0
M  V30 6 C 1.2652 -3.7128 0.0 0
M  V30 7 N -2.6486 -4.4459 0.0 0
M  V30 8 C -0.0472 -4.4459 0.0 0
M  V30 9 C -2.6604 -5.9358 0.0 0
M  V30 10 C -0.0591 -5.9358 0.0 0
M  V30 11 N -1.3716 -6.6807 0.0 0
M  V30 12 C -3.9729 -6.6807 0.0 0
M  V30 13 O 1.2297 -6.6807 0.0 0
M  V30 14 N -5.2854 -5.9121 0.0 0
M  V30 15 C -6.5979 -6.657 0.0 0 CFG=2
M  V30 16 C -7.9104 -5.8885 0.0 0
M  V30 17 C -6.6097 -8.1469 0.0 0
M  V30 18 S -8.076 -4.3868 0.0 0
M  V30 19 C -9.2939 -6.4915 0.0 0
M  V30 20 C -5.3209 -8.88 0.0 0
M  V30 21 C -7.9222 -8.88 0.0 0
M  V30 22 C -9.554 -4.0675 0.0 0
M  V30 23 C -10.3107 -5.3682 0.0 0
M  V30 END ATOM
M  V30 BEGIN BOND
M  V30 1 1 1 2
M  V30 2 2 2 3
M  V30 3 1 2 4
M  V30 4 1 3 5
M  V30 5 2 4 6
M  V30 6 1 5 7
M  V30 7 2 5 8
M  V30 8 2 7 9
M  V30 9 1 8 10
M  V30 10 1 9 11
M  V30 11 1 9 12
M  V30 12 2 10 13
M  V30 13 1 12 14
M  V30 14 1 15 14 CFG=1
M  V30 15 1 15 16
M  V30 16 1 15 17
M  V30 17 1 16 18
M  V30 18 2 16 19
M  V30 19 1 17 20
M  V30 20 1 17 21
M  V30 21 1 18 22
M  V30 22 1 19 23
M  V30 23 1 6 8
M  V30 24 1 10 11
M  V30 25 2 22 23
M  V30 END BOND
M  V30 BEGIN COLLECTION
M  V30 MDLV30/STERAC1 ATOMS=(1 15)
M  V30 END COLLECTION
M  V30 END CTAB
M  END
>  <Structure No>
470

>  <Catalog ID>
Z106901900

>  <MW (desalted)>
347.862

>  <ClogP>
2.485

>  <HBD>
2

>  <TPSA>
53.490

>  <RotBonds>
5

>  <Target>
parp10

>  <fromRegid>


>  <Similarity>


$$$$
Compound 471
Actelion Java MolfileCreator 2.0

  0  0  0  0  0  0              0 V3000
M  V30 BEGIN CTAB
M  V30 COUNTS 23 24 0 0 0
M  V30 BEGIN ATOM
M  V30 1 O 0.0 0.0 0.0 0
M  V30 2 C -1.3113 -0.7324 0.0 0
M  V30 3 O -2.6227 0.0236 0.0 0
M  V30 4 C -1.3231 -2.221 0.0 0
M  V30 5 C -2.6345 1.5358 0.0 0
M  V30 6 C -0.0354 -2.9653 0.0 0
M  V30 7 C -2.6345 -2.9653 0.0 0
M  V30 8 C -0.0472 -4.4539 0.0 0
M  V30 9 C -2.6463 -4.4539 0.0 0
M  V30 10 N -1.3586 -5.1863 0.0 0
M  V30 11 C -1.3704 -6.6749 0.0 0
M  V30 12 C -2.6817 -7.4192 0.0 0
M  V30 13 O -2.6936 -8.9078 0.0 0
M  V30 14 N -3.9931 -6.6513 0.0 0
M  V30 15 C -5.3045 -7.3956 0.0 0
M  V30 16 C -6.6158 -6.6277 0.0 0
M  V30 17 C -5.3163 -8.8841 0.0 0
M  V30 18 O -6.6277 -5.1154 0.0 0
M  V30 19 C -7.9272 -7.3719 0.0 0
M  V30 20 C -6.6277 -9.6166 0.0 0
M  V30 21 C -5.3399 -4.3593 0.0 0
M  V30 22 C -7.939 -8.8605 0.0 0
M  V30 23 C -6.6395 -11.1052 0.0 0
M  V30 END ATOM
M  V30 BEGIN BOND
M  V30 1 2 1 2
M  V30 2 1 2 3
M  V30 3 1 2 4
M  V30 4 1 3 5
M  V30 5 1 4 6
M  V30 6 1 4 7
M  V30 7 1 6 8
M  V30 8 1 7 9
M  V30 9 1 8 10
M  V30 10 1 10 11
M  V30 11 1 11 12
M  V30 12 2 12 13
M  V30 13 1 12 14
M  V30 14 1 14 15
M  V30 15 2 15 16
M  V30 16 1 15 17
M  V30 17 1 16 18
M  V30 18 1 16 19
M  V30 19 2 17 20
M  V30 20 1 18 21
M  V30 21 2 19 22
M  V30 22 1 20 23
M  V30 23 1 9 10
M  V30 24 1 20 22
M  V30 END BOND
M  V30 END CTAB
M  END
>  <Structure No>
471

>  <Catalog ID>
Z46245854

>  <MW (desalted)>
320.383

>  <ClogP>
1.234

>  <HBD>
1

>  <TPSA>
67.870

>  <RotBonds>
6

>  <Target>
ATM

>  <fromRegid>


>  <Similarity>


$$$$
Compound 472
Actelion Java MolfileCreator 2.0

  0  0  0  0  0  0              0 V3000
M  V30 BEGIN CTAB
M  V30 COUNTS 23 24 0 0 0
M  V30 BEGIN ATOM
M  V30 1 F 0.0 0.0 0.0 0
M  V30 2 C 1.2921 -0.735 0.0 0
M  V30 3 F 2.0271 0.5808 0.0 0
M  V30 4 F 0.5216 -2.0271 0.0 0
M  V30 5 C 2.5843 -1.4818 0.0 0
M  V30 6 C 2.5725 -2.9755 0.0 0
M  V30 7 C 3.8765 -0.7112 0.0 0
M  V30 8 C 3.8647 -3.7105 0.0 0
M  V30 9 C 5.1687 -1.4581 0.0 0
M  V30 10 C 5.1568 -2.9518 0.0 0
M  V30 11 C 6.449 -3.6868 0.0 0
M  V30 12 C 7.7412 -2.9281 0.0 0
M  V30 13 O 7.7294 -1.4107 0.0 0
M  V30 14 N 9.0334 -3.6631 0.0 0
M  V30 15 C 10.3256 -2.9044 0.0 0
M  V30 16 C 10.3137 -1.387 0.0 0
M  V30 17 C 11.6178 -3.6394 0.0 0
M  V30 18 C 11.6059 -0.6164 0.0 0
M  V30 19 C 12.91 -2.8807 0.0 0
M  V30 20 C 11.5941 0.9009 0.0 0
M  V30 21 C 12.8981 -1.3633 0.0 0
M  V30 22 O 10.2782 1.6596 0.0 0
M  V30 23 C 12.8863 1.6596 0.0 0
M  V30 END ATOM
M  V30 BEGIN BOND
M  V30 1 1 1 2
M  V30 2 1 2 3
M  V30 3 1 2 4
M  V30 4 1 2 5
M  V30 5 2 5 6
M  V30 6 1 5 7
M  V30 7 1 6 8
M  V30 8 2 7 9
M  V30 9 2 8 10
M  V30 10 1 10 11
M  V30 11 1 11 12
M  V30 12 2 12 13
M  V30 13 1 12 14
M  V30 14 1 14 15
M  V30 15 2 15 16
M  V30 16 1 15 17
M  V30 17 1 16 18
M  V30 18 2 17 19
M  V30 19 1 18 20
M  V30 20 2 18 21
M  V30 21 2 20 22
M  V30 22 1 20 23
M  V30 23 1 9 10
M  V30 24 1 19 21
M  V30 END BOND
M  V30 END CTAB
M  END
>  <Structure No>
472

>  <Catalog ID>
Z169621246

>  <MW (desalted)>
321.294

>  <ClogP>
3.490

>  <HBD>
1

>  <TPSA>
46.170

>  <RotBonds>
5

>  <Target>
parp14

>  <fromRegid>


>  <Similarity>


$$$$
Compound 473
Actelion Java MolfileCreator 2.0

  0  0  0  0  0  0              0 V3000
M  V30 BEGIN CTAB
M  V30 COUNTS 23 25 0 0 0
M  V30 BEGIN ATOM
M  V30 1 Cl 0.0 0.0 0.0 0
M  V30 2 C 1.2948 0.7602 0.0 0
M  V30 3 C 2.5896 0.0237 0.0 0
M  V30 4 C 1.2829 2.2808 0.0 0
M  V30 5 C 3.8845 0.784 0.0 0
M  V30 6 C 2.5777 3.041 0.0 0
M  V30 7 C 3.8726 2.3045 0.0 0
M  V30 8 O 5.1674 3.0648 0.0 0
M  V30 9 C 6.4622 2.3283 0.0 0 CFG=2
M  V30 10 C 7.7571 3.0885 0.0 0
M  V30 11 C 6.4504 0.8315 0.0 0
M  V30 12 O 7.7452 4.6091 0.0 0
M  V30 13 N 9.0519 2.352 0.0 0
M  V30 14 C 10.3467 3.1123 0.0 0
M  V30 15 C 11.6416 2.3758 0.0 0
M  V30 16 N 13.0077 3.0054 0.0 0
M  V30 17 N 11.7841 0.8909 0.0 0
M  V30 18 C 14.0055 1.9006 0.0 0
M  V30 19 C 13.2453 0.5939 0.0 0
M  V30 20 C 15.5023 1.9125 0.0 0
M  V30 21 C 13.9937 -0.7008 0.0 0
M  V30 22 C 16.2507 0.6177 0.0 0
M  V30 23 C 15.4904 -0.6889 0.0 0
M  V30 END ATOM
M  V30 BEGIN BOND
M  V30 1 1 1 2
M  V30 2 2 2 3
M  V30 3 1 2 4
M  V30 4 1 3 5
M  V30 5 2 4 6
M  V30 6 2 5 7
M  V30 7 1 7 8
M  V30 8 1 9 8 CFG=3
M  V30 9 1 9 10
M  V30 10 1 9 11
M  V30 11 2 10 12
M  V30 12 1 10 13
M  V30 13 1 13 14
M  V30 14 1 14 15
M  V30 15 2 15 16
M  V30 16 1 15 17
M  V30 17 1 16 18
M  V30 18 1 17 19
M  V30 19 1 18 20
M  V30 20 1 19 21
M  V30 21 2 20 22
M  V30 22 2 21 23
M  V30 23 1 6 7
M  V30 24 2 18 19
M  V30 25 1 22 23
M  V30 END BOND
M  V30 BEGIN COLLECTION
M  V30 MDLV30/STERAC1 ATOMS=(1 9)
M  V30 END COLLECTION
M  V30 END CTAB
M  END
>  <Structure No>
473

>  <Catalog ID>
Z26782332

>  <MW (desalted)>
329.781

>  <ClogP>
3.288

>  <HBD>
2

>  <TPSA>
67.010

>  <RotBonds>
5

>  <Target>
ATM

>  <fromRegid>


>  <Similarity>


$$$$
Compound 474
Actelion Java MolfileCreator 2.0

  0  0  0  0  0  0              0 V3000
M  V30 BEGIN CTAB
M  V30 COUNTS 23 26 0 0 0
M  V30 BEGIN ATOM
M  V30 1 S 0.0 0.0 0.0 0
M  V30 2 C -0.7551 -1.2861 0.0 0
M  V30 3 C -1.0147 1.1209 0.0 0
M  V30 4 N -2.23 -0.9675 0.0 0
M  V30 5 C -0.1533 -2.643 0.0 0
M  V30 6 C -2.3952 0.5191 0.0 0
M  V30 7 C -0.9085 -3.9291 0.0 0
M  V30 8 C 1.2979 -2.938 0.0 0
M  V30 9 C -3.705 1.2861 0.0 0
M  V30 10 S 0.0825 -5.0265 0.0 0
M  V30 11 C 1.4395 -4.4129 0.0 0
M  V30 12 O -5.0147 0.5427 0.0 0
M  V30 13 N -3.7168 2.7964 0.0 0
M  V30 14 C -2.4306 3.5634 0.0 0
M  V30 15 C -5.0265 3.5634 0.0 0
M  V30 16 C -2.4424 5.0737 0.0 0
M  V30 17 C -1.1445 2.82 0.0 0
M  V30 18 C -5.0383 5.0737 0.0 0
M  V30 19 N -3.7522 5.8406 0.0 0
M  V30 20 C -1.1563 5.8406 0.0 0
M  V30 21 C 0.1415 3.587 0.0 0
M  V30 22 O -6.348 5.8406 0.0 0
M  V30 23 C 0.1297 5.0973 0.0 0
M  V30 END ATOM
M  V30 BEGIN BOND
M  V30 1 1 1 2
M  V30 2 1 1 3
M  V30 3 2 2 4
M  V30 4 1 2 5
M  V30 5 2 3 6
M  V30 6 2 5 7
M  V30 7 1 5 8
M  V30 8 1 6 9
M  V30 9 1 7 10
M  V30 10 2 8 11
M  V30 11 2 9 12
M  V30 12 1 9 13
M  V30 13 1 13 14
M  V30 14 1 13 15
M  V30 15 2 14 16
M  V30 16 1 14 17
M  V30 17 1 15 18
M  V30 18 1 16 19
M  V30 19 1 16 20
M  V30 20 2 17 21
M  V30 21 2 18 22
M  V30 22 2 20 23
M  V30 23 1 4 6
M  V30 24 1 10 11
M  V30 25 1 18 19
M  V30 26 1 21 23
M  V30 END BOND
M  V30 END CTAB
M  END
>  <Structure No>
474

>  <Catalog ID>
Z116807288

>  <MW (desalted)>
341.407

>  <ClogP>
2.128

>  <HBD>
1

>  <TPSA>
62.300

>  <RotBonds>
2

>  <Target>
Serine/threonine-protein kinase Chk1

>  <fromRegid>
CHEMBL2037101

>  <Similarity>
0.92

$$$$
Compound 475
Actelion Java MolfileCreator 2.0

  0  0  0  0  0  0              0 V3000
M  V30 BEGIN CTAB
M  V30 COUNTS 23 25 0 0 0
M  V30 BEGIN ATOM
M  V30 1 F 0.0 0.0 0.0 0
M  V30 2 C -0.7549 1.3093 0.0 0
M  V30 3 F 0.5308 2.0642 0.0 0
M  V30 4 F -2.0642 0.5779 0.0 0
M  V30 5 C -1.5216 2.6186 0.0 0
M  V30 6 C -0.7785 3.9279 0.0 0
M  V30 7 C -3.0314 2.6304 0.0 0
M  V30 8 C -1.5452 5.2372 0.0 0
M  V30 9 C -3.7981 3.9397 0.0 0
M  V30 10 C -3.055 5.249 0.0 0
M  V30 11 C -0.8021 6.5465 0.0 0
M  V30 12 C 0.6841 6.5583 0.0 0
M  V30 13 O 1.4154 5.2726 0.0 0
M  V30 14 N 1.4154 7.8676 0.0 0
M  V30 15 C 2.9017 7.8794 0.0 0
M  V30 16 N 3.7745 9.1061 0.0 0
M  V30 17 N 3.7745 6.6763 0.0 0
M  V30 18 C 5.19 8.6579 0.0 0
M  V30 19 C 5.19 7.1481 0.0 0
M  V30 20 C 6.4757 9.4246 0.0 0
M  V30 21 C 6.4757 6.405 0.0 0
M  V30 22 C 7.7615 8.6933 0.0 0
M  V30 23 C 7.7615 7.1717 0.0 0
M  V30 END ATOM
M  V30 BEGIN BOND
M  V30 1 1 1 2
M  V30 2 1 2 3
M  V30 3 1 2 4
M  V30 4 1 2 5
M  V30 5 2 5 6
M  V30 6 1 5 7
M  V30 7 1 6 8
M  V30 8 2 7 9
M  V30 9 2 8 10
M  V30 10 1 8 11
M  V30 11 1 11 12
M  V30 12 2 12 13
M  V30 13 1 12 14
M  V30 14 1 14 15
M  V30 15 2 15 16
M  V30 16 1 15 17
M  V30 17 1 16 18
M  V30 18 1 17 19
M  V30 19 1 18 20
M  V30 20 1 19 21
M  V30 21 2 20 22
M  V30 22 2 21 23
M  V30 23 1 9 10
M  V30 24 2 18 19
M  V30 25 1 22 23
M  V30 END BOND
M  V30 END CTAB
M  END
>  <Structure No>
475

>  <Catalog ID>
Z27666322

>  <MW (desalted)>
319.281

>  <ClogP>
3.833

>  <HBD>
2

>  <TPSA>
57.780

>  <RotBonds>
4

>  <Target>
DNA_pk

>  <fromRegid>


>  <Similarity>


$$$$
Compound 476
Actelion Java MolfileCreator 2.0

  0  0  0  0  0  0              0 V3000
M  V30 BEGIN CTAB
M  V30 COUNTS 23 25 0 0 0
M  V30 BEGIN ATOM
M  V30 1 O 0.0 0.0 0.0 0
M  V30 2 C -1.0166 1.123 0.0 0
M  V30 3 N -2.4943 0.8274 0.0 0
M  V30 4 C -0.5674 2.5652 0.0 0
M  V30 5 C -2.9671 -0.591 0.0 0
M  V30 6 N -1.4658 3.7946 0.0 0
M  V30 7 C 0.8511 3.038 0.0 0
M  V30 8 C -4.4448 -0.8865 0.0 0
M  V30 9 C -1.9741 -1.6904 0.0 0
M  V30 10 N -0.591 5.024 0.0 0
M  V30 11 C 0.8393 4.5512 0.0 0
M  V30 12 C 2.1396 2.2933 0.0 0
M  V30 13 C -4.9176 -2.3051 0.0 0
M  V30 14 C -5.4614 0.2364 0.0 0
M  V30 15 C -2.447 -3.109 0.0 0
M  V30 16 C 2.1278 5.3195 0.0 0
M  V30 17 C 3.4281 3.0617 0.0 0
M  V30 18 C -3.9246 -3.4045 0.0 0
M  V30 19 O -1.454 -4.2083 0.0 0
M  V30 20 C 3.4163 4.5748 0.0 0
M  V30 21 O -4.3975 -4.8231 0.0 0
M  V30 22 C -1.9268 -5.6269 0.0 0
M  V30 23 C -3.4045 -5.9224 0.0 0
M  V30 END ATOM
M  V30 BEGIN BOND
M  V30 1 2 1 2
M  V30 2 1 2 3
M  V30 3 1 2 4
M  V30 4 1 3 5
M  V30 5 2 4 6
M  V30 6 1 4 7
M  V30 7 2 5 8
M  V30 8 1 5 9
M  V30 9 1 6 10
M  V30 10 2 7 11
M  V30 11 1 7 12
M  V30 12 1 8 13
M  V30 13 1 8 14
M  V30 14 2 9 15
M  V30 15 1 11 16
M  V30 16 2 12 17
M  V30 17 2 13 18
M  V30 18 1 15 19
M  V30 19 2 16 20
M  V30 20 1 18 21
M  V30 21 1 19 22
M  V30 22 1 21 23
M  V30 23 1 10 11
M  V30 24 1 15 18
M  V30 25 1 17 20
M  V30 END BOND
M  V30 END CTAB
M  END
>  <Structure No>
476

>  <Catalog ID>
Z33594984

>  <MW (desalted)>
311.335

>  <ClogP>
2.463

>  <HBD>
2

>  <TPSA>
76.240

>  <RotBonds>
4

>  <Target>
Serine/threonine-protein kinase Chk2

>  <fromRegid>
CHEMBL2007002

>  <Similarity>
0.9

$$$$
Compound 477
Actelion Java MolfileCreator 2.0

  0  0  0  0  0  0              0 V3000
M  V30 BEGIN CTAB
M  V30 COUNTS 24 24 0 0 0
M  V30 BEGIN ATOM
M  V30 1 Cl 0.0 0.0 0.0 0
M  V30 2 F 9.3658 -1.7974 0.0 0
M  V30 3 C 8.0532 -1.0406 0.0 0
M  V30 4 C 8.0414 0.473 0.0 0
M  V30 5 C 6.7406 -1.7856 0.0 0
M  V30 6 C 9.3304 1.2298 0.0 0
M  V30 7 C 6.7287 1.2298 0.0 0
M  V30 8 C 5.4279 -1.0288 0.0 0
M  V30 9 O 9.3185 2.7435 0.0 0
M  V30 10 N 10.6194 0.4966 0.0 0
M  V30 11 C 5.4161 0.4966 0.0 0
M  V30 12 F 4.1153 -1.7738 0.0 0
M  V30 13 C 11.9084 1.2535 0.0 0
M  V30 14 C 4.1034 1.2535 0.0 0
M  V30 15 C 13.1974 0.5203 0.0 0
M  V30 16 C 14.4863 1.2771 0.0 0
M  V30 17 N 15.7753 0.5439 0.0 0
M  V30 18 C 17.0643 1.3008 0.0 0
M  V30 19 C 18.3533 0.5676 0.0 0
M  V30 20 C 18.3415 -0.9223 0.0 0
M  V30 21 C 19.6423 1.3244 0.0 0
M  V30 22 N 19.6305 -1.6674 0.0 0
M  V30 23 C 20.9313 0.5912 0.0 0
M  V30 24 C 20.9195 -0.9105 0.0 0
M  V30 END ATOM
M  V30 BEGIN BOND
M  V30 1 1 2 3
M  V30 2 2 3 4
M  V30 3 1 3 5
M  V30 4 1 4 6
M  V30 5 1 4 7
M  V30 6 2 5 8
M  V30 7 2 6 9
M  V30 8 1 6 10
M  V30 9 2 7 11
M  V30 10 1 8 12
M  V30 11 1 10 13
M  V30 12 1 11 14
M  V30 13 1 13 15
M  V30 14 1 15 16
M  V30 15 1 16 17
M  V30 16 1 17 18
M  V30 17 1 18 19
M  V30 18 2 19 20
M  V30 19 1 19 21
M  V30 20 1 20 22
M  V30 21 2 21 23
M  V30 22 2 22 24
M  V30 23 1 8 11
M  V30 24 1 23 24
M  V30 END BOND
M  V30 END CTAB
M  END
>  <Structure No>
477

>  <Catalog ID>
Z1456122167

>  <MW (desalted)>
319.349

>  <ClogP>
2.056

>  <HBD>
2

>  <TPSA>
54.020

>  <RotBonds>
7

>  <Target>
ATM

>  <fromRegid>


>  <Similarity>


$$$$
Compound 478
Actelion Java MolfileCreator 2.0

  0  0  0  0  0  0              0 V3000
M  V30 BEGIN CTAB
M  V30 COUNTS 23 25 0 0 0
M  V30 BEGIN ATOM
M  V30 1 O 0.0 0.0 0.0 0
M  V30 2 C -0.0118 -1.4897 0.0 0
M  V30 3 C -1.3242 -2.2228 0.0 0
M  V30 4 C 1.2769 -2.2228 0.0 0
M  V30 5 C -1.336 -3.7125 0.0 0
M  V30 6 C -2.6366 -1.4661 0.0 0
M  V30 7 C 1.2651 -3.7125 0.0 0
M  V30 8 O -0.0472 -4.4574 0.0 0
M  V30 9 C -2.6484 -4.4574 0.0 0
M  V30 10 O -2.6484 0.0472 0.0 0
M  V30 11 C -3.949 -2.1991 0.0 0
M  V30 12 C 2.5538 -4.4574 0.0 0
M  V30 13 C -3.9608 -3.6889 0.0 0
M  V30 14 C 3.8426 -3.6889 0.0 0
M  V30 15 C 2.542 -5.9471 0.0 0
M  V30 16 O -5.2732 -4.4337 0.0 0
M  V30 17 C 5.1313 -4.4337 0.0 0
M  V30 18 C 3.8307 -6.692 0.0 0
M  V30 19 C -6.5856 -3.6652 0.0 0
M  V30 20 C 5.1195 -5.9235 0.0 0
M  V30 21 C -7.898 -4.4101 0.0 0
M  V30 22 O -7.9098 -5.8998 0.0 0
M  V30 23 O -9.2104 -3.6416 0.0 0
M  V30 END ATOM
M  V30 BEGIN BOND
M  V30 1 2 1 2
M  V30 2 1 2 3
M  V30 3 1 2 4
M  V30 4 2 3 5
M  V30 5 1 3 6
M  V30 6 2 4 7
M  V30 7 1 5 8
M  V30 8 1 5 9
M  V30 9 1 6 10
M  V30 10 2 6 11
M  V30 11 1 7 12
M  V30 12 2 9 13
M  V30 13 2 12 14
M  V30 14 1 12 15
M  V30 15 1 13 16
M  V30 16 1 14 17
M  V30 17 2 15 18
M  V30 18 1 16 19
M  V30 19 2 17 20
M  V30 20 1 19 21
M  V30 21 2 21 22
M  V30 22 1 21 23
M  V30 23 1 7 8
M  V30 24 1 11 13
M  V30 25 1 18 20
M  V30 END BOND
M  V30 END CTAB
M  END
>  <Structure No>
478

>  <Catalog ID>
Z1824566549

>  <MW (desalted)>
312.274

>  <ClogP>
3.437

>  <HBD>
2

>  <TPSA>
93.060

>  <RotBonds>
4

>  <Target>
Tankyrase-1

>  <fromRegid>
CHEMBL327209

>  <Similarity>
0.85

$$$$
Compound 479
Actelion Java MolfileCreator 2.0

  0  0  0  0  0  0              0 V3000
M  V30 BEGIN CTAB
M  V30 COUNTS 23 25 0 0 0
M  V30 BEGIN ATOM
M  V30 1 O 0.0 0.0 0.0 0
M  V30 2 C -0.0118 -1.4926 0.0 0
M  V30 3 N 1.2794 -2.2271 0.0 0
M  V30 4 C -1.3268 -2.2271 0.0 0
M  V30 5 C 2.5706 -1.4689 0.0 0
M  V30 6 C -2.6417 -1.4689 0.0 0
M  V30 7 C -1.3386 -3.7197 0.0 0
M  V30 8 C 3.8619 -2.2034 0.0 0
M  V30 9 C -3.9567 -2.2034 0.0 0
M  V30 10 C -2.6536 -4.4661 0.0 0
M  V30 11 C 5.1531 -1.4452 0.0 0
M  V30 12 C -3.9685 -3.696 0.0 0
M  V30 13 C 6.5155 -2.0494 0.0 0
M  V30 14 C 5.2953 0.0592 0.0 0
M  V30 15 C -5.2835 -4.4424 0.0 0
M  V30 16 C 7.5106 -0.924 0.0 0
M  V30 17 C 6.9657 -3.471 0.0 0
M  V30 18 N 6.7524 0.379 0.0 0
M  V30 19 C -5.2953 -5.935 0.0 0
M  V30 20 C -6.5984 -3.6723 0.0 0
M  V30 21 C 8.9677 -1.2201 0.0 0
M  V30 22 C 8.4228 -3.7671 0.0 0
M  V30 23 C 9.4179 -2.6417 0.0 0
M  V30 END ATOM
M  V30 BEGIN BOND
M  V30 1 2 1 2
M  V30 2 1 2 3
M  V30 3 1 2 4
M  V30 4 1 3 5
M  V30 5 2 4 6
M  V30 6 1 4 7
M  V30 7 1 5 8
M  V30 8 1 6 9
M  V30 9 2 7 10
M  V30 10 1 8 11
M  V30 11 2 9 12
M  V30 12 1 11 13
M  V30 13 2 11 14
M  V30 14 1 12 15
M  V30 15 2 13 16
M  V30 16 1 13 17
M  V30 17 1 14 18
M  V30 18 1 15 19
M  V30 19 1 15 20
M  V30 20 1 16 21
M  V30 21 2 17 22
M  V30 22 2 21 23
M  V30 23 1 10 12
M  V30 24 1 16 18
M  V30 25 1 22 23
M  V30 END BOND
M  V30 END CTAB
M  END
>  <Structure No>
479

>  <Catalog ID>
Z26395512

>  <MW (desalted)>
306.401

>  <ClogP>
4.375

>  <HBD>
2

>  <TPSA>
44.890

>  <RotBonds>
5

>  <Target>
Poly [ADP-ribose] polymerase-1

>  <fromRegid>
CHEMBL343641

>  <Similarity>
0.9

$$$$
Compound 480
Actelion Java MolfileCreator 2.0

  0  0  0  0  0  0              0 V3000
M  V30 BEGIN CTAB
M  V30 COUNTS 23 26 0 0 0
M  V30 BEGIN ATOM
M  V30 1 O 0.0 0.0 0.0 0
M  V30 2 C -1.3117 0.7563 0.0 0
M  V30 3 N -1.3236 2.269 0.0 0
M  V30 4 C -2.6235 0.0236 0.0 0
M  V30 5 C -0.0354 3.0372 0.0 0
M  V30 6 C -3.9353 0.7799 0.0 0
M  V30 7 C -2.6353 -1.4654 0.0 0
M  V30 8 C -0.0472 4.5499 0.0 0
M  V30 9 C -5.2471 0.0472 0.0 0
M  V30 10 C -3.9471 -2.1981 0.0 0
M  V30 11 C 1.2408 5.3062 0.0 0
M  V30 12 C -5.2589 -1.4417 0.0 0
M  V30 13 C -6.6889 0.5199 0.0 0
M  V30 14 C 2.5999 4.7035 0.0 0
M  V30 15 C 1.3826 6.8071 0.0 0
M  V30 16 C -6.7007 -1.8908 0.0 0
M  V30 17 C -7.5871 -0.6854 0.0 0
M  V30 18 C 3.5926 5.8262 0.0 0
M  V30 19 C 3.049 3.2853 0.0 0
M  V30 20 N 2.8363 7.1262 0.0 0
M  V30 21 C 5.0462 5.5307 0.0 0
M  V30 22 C 4.5026 2.9899 0.0 0
M  V30 23 C 5.4953 4.1126 0.0 0
M  V30 END ATOM
M  V30 BEGIN BOND
M  V30 1 2 1 2
M  V30 2 1 2 3
M  V30 3 1 2 4
M  V30 4 1 3 5
M  V30 5 2 4 6
M  V30 6 1 4 7
M  V30 7 1 5 8
M  V30 8 1 6 9
M  V30 9 2 7 10
M  V30 10 1 8 11
M  V30 11 2 9 12
M  V30 12 1 9 13
M  V30 13 1 11 14
M  V30 14 2 11 15
M  V30 15 1 12 16
M  V30 16 1 13 17
M  V30 17 2 14 18
M  V30 18 1 14 19
M  V30 19 1 15 20
M  V30 20 1 18 21
M  V30 21 2 19 22
M  V30 22 2 21 23
M  V30 23 1 10 12
M  V30 24 1 16 17
M  V30 25 1 18 20
M  V30 26 1 22 23
M  V30 END BOND
M  V30 END CTAB
M  END
>  <Structure No>
480

>  <Catalog ID>
Z49503975

>  <MW (desalted)>
304.386

>  <ClogP>
3.961

>  <HBD>
2

>  <TPSA>
44.890

>  <RotBonds>
4

>  <Target>
Poly [ADP-ribose] polymerase-1

>  <fromRegid>
CHEMBL551001

>  <Similarity>
0.88

$$$$
Compound 481
Actelion Java MolfileCreator 2.0

  0  0  0  0  0  0              0 V3000
M  V30 BEGIN CTAB
M  V30 COUNTS 23 25 0 0 0
M  V30 BEGIN ATOM
M  V30 1 O 0.0 0.0 0.0 0
M  V30 2 C -1.2443 0.8451 0.0 0
M  V30 3 N -2.5942 0.1995 0.0 0
M  V30 4 C -1.1503 2.3477 0.0 0 CFG=1
M  V30 5 O 0.2817 1.9955 0.0 0
M  V30 6 C -2.6412 2.2068 0.0 0
M  V30 7 C -0.5517 3.7211 0.0 0
M  V30 8 N -3.5333 3.4277 0.0 0
M  V30 9 C -1.4438 4.942 0.0 0
M  V30 10 C -2.9346 4.8011 0.0 0
M  V30 11 C -5.0241 3.2868 0.0 0
M  V30 12 C -5.9163 4.5076 0.0 0
M  V30 13 O -7.4188 4.5194 0.0 0
M  V30 14 C -5.4702 5.9397 0.0 0
M  V30 15 N -7.8884 5.9515 0.0 0
M  V30 16 C -6.691 6.8319 0.0 0
M  V30 17 C -6.7028 8.3344 0.0 0
M  V30 18 C -5.4232 9.0857 0.0 0
M  V30 19 C -8.0058 9.0857 0.0 0
M  V30 20 C -5.435 10.5883 0.0 0
M  V30 21 C -8.0175 10.5883 0.0 0
M  V30 22 C -6.738 11.3396 0.0 0
M  V30 23 C -6.7497 12.8421 0.0 0
M  V30 END ATOM
M  V30 BEGIN BOND
M  V30 1 2 1 2
M  V30 2 1 2 3
M  V30 3 1 2 4
M  V30 4 1 4 5 CFG=3
M  V30 5 1 4 6
M  V30 6 1 4 7
M  V30 7 1 6 8
M  V30 8 1 7 9
M  V30 9 1 8 10
M  V30 10 1 8 11
M  V30 11 1 11 12
M  V30 12 1 12 13
M  V30 13 2 12 14
M  V30 14 1 13 15
M  V30 15 1 14 16
M  V30 16 1 16 17
M  V30 17 2 17 18
M  V30 18 1 17 19
M  V30 19 1 18 20
M  V30 20 2 19 21
M  V30 21 2 20 22
M  V30 22 1 22 23
M  V30 23 1 9 10
M  V30 24 2 15 16
M  V30 25 1 21 22
M  V30 END BOND
M  V30 BEGIN COLLECTION
M  V30 MDLV30/STERAC1 ATOMS=(1 4)
M  V30 END COLLECTION
M  V30 END CTAB
M  END
>  <Structure No>
481

>  <Catalog ID>
Z2058556880

>  <MW (desalted)>
315.367

>  <ClogP>
1.618

>  <HBD>
2

>  <TPSA>
92.590

>  <RotBonds>
4

>  <Target>
ATM

>  <fromRegid>


>  <Similarity>


$$$$
Compound 482
Actelion Java MolfileCreator 2.0

  0  0  0  0  0  0              0 V3000
M  V30 BEGIN CTAB
M  V30 COUNTS 23 25 0 0 0
M  V30 BEGIN ATOM
M  V30 1 O 0.0 0.0 0.0 0
M  V30 2 C -0.0117 1.5085 0.0 0
M  V30 3 N -1.32 2.2746 0.0 0
M  V30 4 C 1.2728 2.2746 0.0 0
M  V30 5 C -1.3317 3.7832 0.0 0
M  V30 6 C 1.261 3.7832 0.0 0
M  V30 7 C 2.5575 1.5321 0.0 0
M  V30 8 N -0.0471 4.5375 0.0 0
M  V30 9 C -2.64 4.5375 0.0 0
M  V30 10 C 2.5457 4.5375 0.0 0
M  V30 11 C 3.8421 2.2982 0.0 0
M  V30 12 O -2.6517 6.046 0.0 0
M  V30 13 N -3.9482 3.8067 0.0 0
M  V30 14 C 3.8303 3.8067 0.0 0
M  V30 15 C -5.2564 4.561 0.0 0
M  V30 16 C -6.5646 3.8303 0.0 0
M  V30 17 C -5.6925 2.6282 0.0 0
M  V30 18 C -7.6843 2.8403 0.0 0
M  V30 19 C -7.1893 5.2093 0.0 0
M  V30 20 O -4.2192 2.7932 0.0 0
M  V30 21 N -6.3171 1.2728 0.0 0
M  V30 22 C -8.9925 3.6064 0.0 0
M  V30 23 C -8.6861 5.0678 0.0 0
M  V30 END ATOM
M  V30 BEGIN BOND
M  V30 1 2 1 2
M  V30 2 1 2 3
M  V30 3 1 2 4
M  V30 4 1 3 5
M  V30 5 2 4 6
M  V30 6 1 4 7
M  V30 7 2 5 8
M  V30 8 1 5 9
M  V30 9 1 6 10
M  V30 10 2 7 11
M  V30 11 2 9 12
M  V30 12 1 9 13
M  V30 13 2 10 14
M  V30 14 1 13 15
M  V30 15 1 15 16
M  V30 16 1 16 17
M  V30 17 1 16 18
M  V30 18 1 16 19
M  V30 19 2 17 20
M  V30 20 1 17 21
M  V30 21 1 18 22
M  V30 22 1 19 23
M  V30 23 1 6 8
M  V30 24 1 11 14
M  V30 25 1 22 23
M  V30 END BOND
M  V30 END CTAB
M  END
>  <Structure No>
482

>  <Catalog ID>
Z1213176656

>  <MW (desalted)>
314.339

>  <ClogP>
0.878

>  <HBD>
3

>  <TPSA>
113.650

>  <RotBonds>
4

>  <Target>
parp15

>  <fromRegid>


>  <Similarity>


$$$$
Compound 483
Actelion Java MolfileCreator 2.0

  0  0  0  0  0  0              0 V3000
M  V30 BEGIN CTAB
M  V30 COUNTS 24 27 0 0 0
M  V30 BEGIN ATOM
M  V30 1 Cl 0.0 0.0 0.0 0
M  V30 2 C 0.9879 1.1173 0.0 0
M  V30 3 C 2.4346 0.8233 0.0 0
M  V30 4 C 0.5175 2.5523 0.0 0
M  V30 5 C 3.4226 1.9406 0.0 0
M  V30 6 C 1.5055 3.6696 0.0 0
M  V30 7 C 2.9522 3.3756 0.0 0
M  V30 8 C 3.9402 4.493 0.0 0
M  V30 9 C 3.4697 5.9279 0.0 0
M  V30 10 C 2.0347 6.3984 0.0 0
M  V30 11 C 4.3401 7.1511 0.0 0
M  V30 12 N 0.7292 5.6691 0.0 0
M  V30 13 C 2.023 7.9039 0.0 0
M  V30 14 C 3.4462 8.3744 0.0 0
M  V30 15 C -0.5763 6.4219 0.0 0
M  V30 16 C 0.7174 8.6566 0.0 0
M  V30 17 C -0.588 7.9274 0.0 0
M  V30 18 C -1.8818 5.6927 0.0 0
M  V30 19 C 0.7057 10.1621 0.0 0
M  V30 20 C -1.8936 8.6802 0.0 0
M  V30 21 C -3.1874 6.4454 0.0 0
M  V30 22 O 1.9877 10.9149 0.0 0
M  V30 23 O -0.5998 10.9149 0.0 0
M  V30 24 C -3.1992 7.9509 0.0 0
M  V30 END ATOM
M  V30 BEGIN BOND
M  V30 1 1 1 2
M  V30 2 2 2 3
M  V30 3 1 2 4
M  V30 4 1 3 5
M  V30 5 2 4 6
M  V30 6 2 5 7
M  V30 7 1 7 8
M  V30 8 2 8 9 CFG=2
M  V30 9 1 9 10
M  V30 10 1 9 11
M  V30 11 2 10 12
M  V30 12 1 10 13
M  V30 13 1 11 14
M  V30 14 1 12 15
M  V30 15 2 13 16
M  V30 16 1 15 17
M  V30 17 2 15 18
M  V30 18 1 16 19
M  V30 19 2 17 20
M  V30 20 1 18 21
M  V30 21 2 19 22
M  V30 22 1 19 23
M  V30 23 1 20 24
M  V30 24 1 6 7
M  V30 25 1 13 14
M  V30 26 1 16 17
M  V30 27 2 21 24
M  V30 END BOND
M  V30 END CTAB
M  END
>  <Structure No>
483

>  <Catalog ID>
Z46108276

>  <MW (desalted)>
335.784

>  <ClogP>
5.692

>  <HBD>
1

>  <TPSA>
50.190

>  <RotBonds>
2

>  <Target>
Serine/threonine-protein kinase Chk2

>  <fromRegid>
CHEMBL1996831

>  <Similarity>
0.87

$$$$
Compound 484
Actelion Java MolfileCreator 2.0

  0  0  0  0  0  0              0 V3000
M  V30 BEGIN CTAB
M  V30 COUNTS 24 27 0 0 0
M  V30 BEGIN ATOM
M  V30 1 O 0.0 0.0 0.0 0
M  V30 2 C -1.314 -0.7339 0.0 0
M  V30 3 O -2.628 0.0236 0.0 0
M  V30 4 C -1.3258 -2.2255 0.0 0
M  V30 5 C -2.6398 -2.9595 0.0 0
M  V30 6 C -0.0355 -2.9595 0.0 0
M  V30 7 C -2.6517 -4.451 0.0 0
M  V30 8 C -3.9538 -2.2018 0.0 0
M  V30 9 C -0.0473 -4.451 0.0 0
M  V30 10 C 1.2548 -2.2018 0.0 0
M  V30 11 N -1.3613 -5.185 0.0 0
M  V30 12 C -3.9657 -5.185 0.0 0
M  V30 13 C -5.2679 -2.9358 0.0 0
M  V30 14 C 1.2429 -5.185 0.0 0
M  V30 15 C 2.5451 -2.9358 0.0 0
M  V30 16 C -5.2797 -4.4274 0.0 0
M  V30 17 C 1.2311 -6.6766 0.0 0
M  V30 18 C 2.5333 -4.4274 0.0 0
M  V30 19 C -0.0828 -7.4224 0.0 0
M  V30 20 C -0.0947 -8.914 0.0 0
M  V30 21 C -1.3968 -6.6648 0.0 0
M  V30 22 C -1.4087 -9.6598 0.0 0
M  V30 23 C -2.7109 -7.4105 0.0 0
M  V30 24 C -2.7227 -8.8903 0.0 0
M  V30 END ATOM
M  V30 BEGIN BOND
M  V30 1 2 1 2
M  V30 2 1 2 3
M  V30 3 1 2 4
M  V30 4 1 4 5
M  V30 5 2 4 6
M  V30 6 1 5 7
M  V30 7 2 5 8
M  V30 8 1 6 9
M  V30 9 1 6 10
M  V30 10 1 7 11
M  V30 11 2 7 12
M  V30 12 1 8 13
M  V30 13 1 9 14
M  V30 14 1 10 15
M  V30 15 1 12 16
M  V30 16 2 14 17 CFG=2
M  V30 17 1 14 18
M  V30 18 1 17 19
M  V30 19 2 19 20
M  V30 20 1 19 21
M  V30 21 1 20 22
M  V30 22 2 21 23
M  V30 23 2 22 24
M  V30 24 2 9 11
M  V30 25 2 13 16
M  V30 26 1 15 18
M  V30 27 1 23 24
M  V30 END BOND
M  V30 END CTAB
M  END
>  <Structure No>
484

>  <Catalog ID>
Z46035726

>  <MW (desalted)>
315.365

>  <ClogP>
5.538

>  <HBD>
1

>  <TPSA>
50.190

>  <RotBonds>
2

>  <Target>
Serine/threonine-protein kinase Chk2

>  <fromRegid>
CHEMBL1996831

>  <Similarity>
0.9

$$$$
Compound 485
Actelion Java MolfileCreator 2.0

  0  0  0  0  0  0              0 V3000
M  V30 BEGIN CTAB
M  V30 COUNTS 24 28 0 0 0
M  V30 BEGIN ATOM
M  V30 1 Cl 0.0 0.0 0.0 0
M  V30 2 C 0.8917 -1.2009 0.0 0
M  V30 3 C 2.3781 -1.0107 0.0 0
M  V30 4 C 0.2853 -2.5802 0.0 0
M  V30 5 C 3.2699 -2.2116 0.0 0
M  V30 6 C 1.1771 -3.7812 0.0 0
M  V30 7 C 2.6635 -3.5909 0.0 0
M  V30 8 C 3.5553 -4.7919 0.0 0
M  V30 9 N 3.1034 -6.2188 0.0 0
M  V30 10 N 5.0535 -4.7562 0.0 0
M  V30 11 N 4.3282 -7.0749 0.0 0
M  V30 12 C 5.5291 -6.1712 0.0 0
M  V30 13 C 4.4946 -8.5612 0.0 0
M  V30 14 C 6.9084 -6.7538 0.0 0
M  V30 15 O 3.2699 -9.453 0.0 0
M  V30 16 N 5.8739 -9.1439 0.0 0
M  V30 17 C 7.0749 -8.2402 0.0 0
M  V30 18 C 8.264 -6.1118 0.0 0
M  V30 19 S 8.5493 -8.5256 0.0 0
M  V30 20 C 9.2747 -7.2057 0.0 0
M  V30 21 C 8.692 -4.6611 0.0 0
M  V30 22 C 10.7372 -6.8609 0.0 0
M  V30 23 C 10.1546 -4.3163 0.0 0
M  V30 24 C 11.1653 -5.4102 0.0 0
M  V30 END ATOM
M  V30 BEGIN BOND
M  V30 1 1 1 2
M  V30 2 2 2 3
M  V30 3 1 2 4
M  V30 4 1 3 5
M  V30 5 2 4 6
M  V30 6 2 5 7
M  V30 7 1 7 8
M  V30 8 2 8 9
M  V30 9 1 8 10
M  V30 10 1 9 11
M  V30 11 2 10 12
M  V30 12 1 11 13
M  V30 13 1 12 14
M  V30 14 2 13 15
M  V30 15 1 13 16
M  V30 16 2 14 17
M  V30 17 1 14 18
M  V30 18 1 17 19
M  V30 19 2 18 20
M  V30 20 1 18 21
M  V30 21 1 20 22
M  V30 22 1 21 23
M  V30 23 1 22 24
M  V30 24 1 6 7
M  V30 25 1 11 12
M  V30 26 1 16 17
M  V30 27 1 19 20
M  V30 28 1 23 24
M  V30 END BOND
M  V30 END CTAB
M  END
>  <Structure No>
485

>  <Catalog ID>
Z55410776

>  <MW (desalted)>
356.829

>  <ClogP>
3.109

>  <HBD>
1

>  <TPSA>
59.810

>  <RotBonds>
1

>  <Target>
Serine/threonine-protein kinase Chk2

>  <fromRegid>
CHEMBL2007592

>  <Similarity>
0.96

$$$$
Compound 486
Actelion Java MolfileCreator 2.0

  0  0  0  0  0  0              0 V3000
M  V30 BEGIN CTAB
M  V30 COUNTS 24 26 0 0 0
M  V30 BEGIN ATOM
M  V30 1 O 0.0 0.0 0.0 0
M  V30 2 C 0.4488 1.441 0.0 0
M  V30 3 C 1.8662 1.9135 0.0 0
M  V30 4 C -0.4488 2.6695 0.0 0
M  V30 5 C 1.8544 3.4254 0.0 0
M  V30 6 C 3.1538 1.1693 0.0 0
M  V30 7 O 0.4252 3.8979 0.0 0
M  V30 8 C -1.9607 2.6813 0.0 0
M  V30 9 C 3.1419 4.1932 0.0 0
M  V30 10 C 4.4413 1.9371 0.0 0
M  V30 11 C -2.7167 1.3938 0.0 0
M  V30 12 C 4.4294 3.4609 0.0 0
M  V30 13 C -4.2286 1.4056 0.0 0
M  V30 14 C -1.9844 0.1063 0.0 0
M  V30 15 O 5.717 4.2286 0.0 0
M  V30 16 C -4.9964 0.1181 0.0 0
M  V30 17 C -2.7403 -1.1811 0.0 0
M  V30 18 O -6.5084 0.1299 0.0 0
M  V30 19 C -4.2523 -1.1693 0.0 0
M  V30 20 O -2.008 -2.4687 0.0 0
M  V30 21 C -7.2761 -1.1575 0.0 0
M  V30 22 O -5.02 -2.4568 0.0 0
M  V30 23 C -2.764 -3.7562 0.0 0
M  V30 24 C -4.2759 -3.7443 0.0 0
M  V30 END ATOM
M  V30 BEGIN BOND
M  V30 1 2 1 2
M  V30 2 1 2 3
M  V30 3 1 2 4
M  V30 4 2 3 5
M  V30 5 1 3 6
M  V30 6 1 4 7
M  V30 7 2 4 8 CFG=2
M  V30 8 1 5 9
M  V30 9 2 6 10
M  V30 10 1 8 11
M  V30 11 2 9 12
M  V30 12 2 11 13
M  V30 13 1 11 14
M  V30 14 1 12 15
M  V30 15 1 13 16
M  V30 16 2 14 17
M  V30 17 1 16 18
M  V30 18 2 16 19
M  V30 19 1 17 20
M  V30 20 1 18 21
M  V30 21 1 19 22
M  V30 22 1 20 23
M  V30 23 1 22 24
M  V30 24 1 5 7
M  V30 25 1 10 12
M  V30 26 1 17 19
M  V30 END BOND
M  V30 END CTAB
M  END
>  <Structure No>
486

>  <Catalog ID>
Z119968738

>  <MW (desalted)>
328.316

>  <ClogP>
3.077

>  <HBD>
1

>  <TPSA>
74.220

>  <RotBonds>
4

>  <Target>
Poly [ADP-ribose] polymerase-1

>  <fromRegid>
CHEMBL3290471

>  <Similarity>
0.87

$$$$
Compound 487
Actelion Java MolfileCreator 2.0

  0  0  0  0  0  0              0 V3000
M  V30 BEGIN CTAB
M  V30 COUNTS 24 26 0 0 0
M  V30 BEGIN ATOM
M  V30 1 O 0.0 0.0 0.0 0
M  V30 2 C 0.4486 1.4404 0.0 0
M  V30 3 C 1.8655 1.9127 0.0 0
M  V30 4 C -0.4486 2.6684 0.0 0
M  V30 5 C 1.8537 3.424 0.0 0
M  V30 6 C 3.1525 1.1689 0.0 0
M  V30 7 O 0.425 3.8963 0.0 0
M  V30 8 C -1.9599 2.6802 0.0 0
M  V30 9 C 3.1407 4.1915 0.0 0
M  V30 10 C 4.4394 1.9363 0.0 0
M  V30 11 C -2.7156 1.3932 0.0 0
M  V30 12 C 4.4276 3.4594 0.0 0
M  V30 13 C -4.2269 1.405 0.0 0
M  V30 14 C -1.9836 0.1062 0.0 0
M  V30 15 O 5.7146 4.2269 0.0 0
M  V30 16 O -4.9944 2.7156 0.0 0
M  V30 17 C -4.9944 0.118 0.0 0
M  V30 18 C -2.7392 -1.1807 0.0 0
M  V30 19 C -4.2505 4.0262 0.0 0
M  V30 20 C -4.2505 -1.1689 0.0 0
M  V30 21 O -2.0072 -2.4676 0.0 0
M  V30 22 O -5.018 -2.4558 0.0 0
M  V30 23 C -2.7628 -3.7546 0.0 0
M  V30 24 C -4.2741 -3.7428 0.0 0
M  V30 END ATOM
M  V30 BEGIN BOND
M  V30 1 2 1 2
M  V30 2 1 2 3
M  V30 3 1 2 4
M  V30 4 2 3 5
M  V30 5 1 3 6
M  V30 6 1 4 7
M  V30 7 2 4 8 CFG=2
M  V30 8 1 5 9
M  V30 9 2 6 10
M  V30 10 1 8 11
M  V30 11 2 9 12
M  V30 12 2 11 13
M  V30 13 1 11 14
M  V30 14 1 12 15
M  V30 15 1 13 16
M  V30 16 1 13 17
M  V30 17 2 14 18
M  V30 18 1 16 19
M  V30 19 2 17 20
M  V30 20 1 18 21
M  V30 21 1 20 22
M  V30 22 1 21 23
M  V30 23 1 22 24
M  V30 24 1 5 7
M  V30 25 1 10 12
M  V30 26 1 18 20
M  V30 END BOND
M  V30 END CTAB
M  END
>  <Structure No>
487

>  <Catalog ID>
Z119968798

>  <MW (desalted)>
328.316

>  <ClogP>
3.427

>  <HBD>
1

>  <TPSA>
74.220

>  <RotBonds>
4

>  <Target>
Poly [ADP-ribose] polymerase-1

>  <fromRegid>
CHEMBL3290471

>  <Similarity>
0.86

$$$$
Compound 488
Actelion Java MolfileCreator 2.0

  0  0  0  0  0  0              0 V3000
M  V30 BEGIN CTAB
M  V30 COUNTS 24 26 0 0 0
M  V30 BEGIN ATOM
M  V30 1 S 0.0 0.0 0.0 0
M  V30 2 O -1.5109 0.0118 0.0 0
M  V30 3 O 1.4873 0.0118 0.0 0
M  V30 4 N -0.0118 -1.4873 0.0 0
M  V30 5 C -0.0118 1.5109 0.0 0
M  V30 6 C 1.2748 -2.2191 0.0 0
M  V30 7 C 1.2748 2.2664 0.0 0
M  V30 8 C -1.322 2.2664 0.0 0
M  V30 9 C 1.263 -3.7065 0.0 0
M  V30 10 C 2.5615 -1.4637 0.0 0
M  V30 11 C 1.263 3.7773 0.0 0
M  V30 12 C -1.3338 3.7773 0.0 0
M  V30 13 O -0.0472 -4.4383 0.0 0
M  V30 14 C 2.5497 -4.4383 0.0 0
M  V30 15 C 3.8481 -2.1955 0.0 0
M  V30 16 C -0.0472 4.5328 0.0 0
M  V30 17 C -1.3574 -3.6829 0.0 0
M  V30 18 C 3.8363 -3.6829 0.0 0
M  V30 19 F -0.059 6.0437 0.0 0
M  V30 20 C -2.6677 -4.4147 0.0 0
M  V30 21 C -1.3692 -2.1719 0.0 0
M  V30 22 C -3.978 -3.6592 0.0 0
M  V30 23 C -2.6795 -1.4165 0.0 0
M  V30 24 C -3.9898 -2.1483 0.0 0
M  V30 END ATOM
M  V30 BEGIN BOND
M  V30 1 2 1 2
M  V30 2 2 1 3
M  V30 3 1 1 4
M  V30 4 1 1 5
M  V30 5 1 4 6
M  V30 6 2 5 7
M  V30 7 1 5 8
M  V30 8 2 6 9
M  V30 9 1 6 10
M  V30 10 1 7 11
M  V30 11 2 8 12
M  V30 12 1 9 13
M  V30 13 1 9 14
M  V30 14 2 10 15
M  V30 15 2 11 16
M  V30 16 1 13 17
M  V30 17 2 14 18
M  V30 18 1 16 19
M  V30 19 2 17 20
M  V30 20 1 17 21
M  V30 21 1 20 22
M  V30 22 2 21 23
M  V30 23 2 22 24
M  V30 24 1 12 16
M  V30 25 1 15 18
M  V30 26 1 23 24
M  V30 END BOND
M  V30 END CTAB
M  END
>  <Structure No>
488

>  <Catalog ID>
Z45708389

>  <MW (desalted)>
343.372

>  <ClogP>
5.123

>  <HBD>
1

>  <TPSA>
55.400

>  <RotBonds>
4

>  <Target>
Serine/threonine-protein kinase Chk1

>  <fromRegid>
CHEMBL1968025

>  <Similarity>
0.87

$$$$
Compound 489
Actelion Java MolfileCreator 2.0

  0  0  0  0  0  0              0 V3000
M  V30 BEGIN CTAB
M  V30 COUNTS 24 25 0 0 0
M  V30 BEGIN ATOM
M  V30 1 O 0.0 0.0 0.0 0
M  V30 2 C 1.2931 -0.7355 0.0 0
M  V30 3 N 2.5863 0.0237 0.0 0
M  V30 4 C 1.2813 -2.2304 0.0 0
M  V30 5 C 2.5744 1.5423 0.0 0
M  V30 6 C -0.0355 -2.9778 0.0 0
M  V30 7 C 2.5744 -2.9778 0.0 0
M  V30 8 C -0.0474 -4.4727 0.0 0
M  V30 9 C 2.5626 -4.4727 0.0 0
M  V30 10 N -1.3643 -5.2082 0.0 0
M  V30 11 C 1.2457 -5.2082 0.0 0
M  V30 12 C -1.3762 -6.7031 0.0 0
M  V30 13 O -2.6931 -7.4387 0.0 0
M  V30 14 C -0.083 -7.4387 0.0 0
M  V30 15 C -0.0949 -8.9335 0.0 0
M  V30 16 C 1.3643 -8.5895 0.0 0
M  V30 17 C 0.5457 -10.2742 0.0 0
M  V30 18 C -1.5779 -8.5895 0.0 0
M  V30 19 O 2.3727 -9.681 0.0 0
M  V30 20 O 1.7914 -7.1421 0.0 0
M  V30 21 C -0.1186 -11.6148 0.0 0
M  V30 22 C -2.7643 -9.5149 0.0 0
M  V30 23 C -1.6016 -11.9351 0.0 0
M  V30 24 C -2.7761 -11.0097 0.0 0
M  V30 END ATOM
M  V30 BEGIN BOND
M  V30 1 2 1 2
M  V30 2 1 2 3
M  V30 3 1 2 4
M  V30 4 1 3 5
M  V30 5 2 4 6
M  V30 6 1 4 7
M  V30 7 1 6 8
M  V30 8 2 7 9
M  V30 9 1 8 10
M  V30 10 2 8 11
M  V30 11 1 10 12
M  V30 12 2 12 13
M  V30 13 1 12 14
M  V30 14 1 14 15
M  V30 15 1 15 16
M  V30 16 1 15 17
M  V30 17 1 15 18
M  V30 18 2 16 19
M  V30 19 1 16 20
M  V30 20 1 17 21
M  V30 21 1 18 22
M  V30 22 1 21 23
M  V30 23 1 22 24
M  V30 24 1 9 11
M  V30 25 1 23 24
M  V30 END BOND
M  V30 END CTAB
M  END
>  <Structure No>
489

>  <Catalog ID>
Z169864346

>  <MW (desalted)>
332.394

>  <ClogP>
2.537

>  <HBD>
3

>  <TPSA>
95.500

>  <RotBonds>
5

>  <Target>
Poly [ADP-ribose] polymerase-1

>  <fromRegid>
CHEMBL3414766

>  <Similarity>
0.9

$$$$
Compound 490
Actelion Java MolfileCreator 2.0

  0  0  0  0  0  0              0 V3000
M  V30 BEGIN CTAB
M  V30 COUNTS 24 25 0 0 0
M  V30 BEGIN ATOM
M  V30 1 O 0.0 0.0 0.0 0
M  V30 2 C 1.2926 -0.7471 0.0 0
M  V30 3 N 2.5852 0.0118 0.0 0
M  V30 4 C 1.2807 -2.2413 0.0 0
M  V30 5 C 2.5733 1.5298 0.0 0
M  V30 6 C -0.0355 -2.9884 0.0 0
M  V30 7 C 2.5733 -2.9884 0.0 0
M  V30 8 C -0.0474 -4.4826 0.0 0
M  V30 9 C 2.5615 -4.4826 0.0 0
M  V30 10 N -1.3637 -5.2297 0.0 0
M  V30 11 C 1.2451 -5.2297 0.0 0
M  V30 12 C -1.3756 -6.724 0.0 0
M  V30 13 O -0.083 -7.4711 0.0 0
M  V30 14 C -2.6919 -7.4711 0.0 0
M  V30 15 C -2.7038 -8.9653 0.0 0
M  V30 16 C -1.2333 -8.6925 0.0 0
M  V30 17 C -3.2256 -10.3646 0.0 0
M  V30 18 C -4.198 -8.6925 0.0 0
M  V30 19 C -0.2727 -9.831 0.0 0
M  V30 20 C -2.265 -11.5031 0.0 0
M  V30 21 C -5.1823 -9.831 0.0 0
M  V30 22 C -0.7945 -11.2303 0.0 0
M  V30 23 O -4.6842 -11.2303 0.0 0
M  V30 24 O -6.6765 -9.5582 0.0 0
M  V30 END ATOM
M  V30 BEGIN BOND
M  V30 1 2 1 2
M  V30 2 1 2 3
M  V30 3 1 2 4
M  V30 4 1 3 5
M  V30 5 2 4 6
M  V30 6 1 4 7
M  V30 7 1 6 8
M  V30 8 2 7 9
M  V30 9 1 8 10
M  V30 10 2 8 11
M  V30 11 1 10 12
M  V30 12 2 12 13
M  V30 13 1 12 14
M  V30 14 1 14 15
M  V30 15 1 15 16
M  V30 16 1 15 17
M  V30 17 1 15 18
M  V30 18 1 16 19
M  V30 19 1 17 20
M  V30 20 1 18 21
M  V30 21 1 19 22
M  V30 22 2 21 23
M  V30 23 1 21 24
M  V30 24 1 9 11
M  V30 25 1 20 22
M  V30 END BOND
M  V30 END CTAB
M  END
>  <Structure No>
490

>  <Catalog ID>
Z90313870

>  <MW (desalted)>
332.394

>  <ClogP>
2.442

>  <HBD>
3

>  <TPSA>
95.500

>  <RotBonds>
6

>  <Target>
Poly [ADP-ribose] polymerase-1

>  <fromRegid>
CHEMBL3414770

>  <Similarity>
0.86

$$$$
Compound 491
Actelion Java MolfileCreator 2.0

  0  0  0  0  0  0              0 V3000
M  V30 BEGIN CTAB
M  V30 COUNTS 24 25 0 0 0
M  V30 BEGIN ATOM
M  V30 1 S 0.0 0.0 0.0 0
M  V30 2 O 1.2857 0.7549 0.0 0
M  V30 3 O 0.7431 -1.2857 0.0 0
M  V30 4 N -0.7549 1.3093 0.0 0
M  V30 5 C -1.3093 -0.7313 0.0 0
M  V30 6 C -1.3211 -2.2176 0.0 0
M  V30 7 C -2.6186 0.0235 0.0 0
M  V30 8 C -2.6304 -2.9489 0.0 0
M  V30 9 C -3.9279 -0.7077 0.0 0
M  V30 10 C -3.9397 -2.194 0.0 0
M  V30 11 C -2.6422 -4.4352 0.0 0
M  V30 12 N -3.9515 -5.1783 0.0 0
M  V30 13 C -3.9633 -6.6646 0.0 0
M  V30 14 O -2.6776 -7.4077 0.0 0
M  V30 15 C -5.2727 -7.4077 0.0 0
M  V30 16 C -6.582 -6.641 0.0 0
M  V30 17 C -5.2845 -8.894 0.0 0
M  V30 18 C -7.8913 -7.3841 0.0 0
M  V30 19 C -6.5938 -5.1311 0.0 0
M  V30 20 C -6.5938 -9.6253 0.0 0
M  V30 21 N -9.2007 -6.6174 0.0 0 CHG=1
M  V30 22 C -7.9031 -8.8704 0.0 0
M  V30 23 O -10.51 -7.3605 0.0 0
M  V30 24 O -9.2125 -5.1075 0.0 0 CHG=-1
M  V30 END ATOM
M  V30 BEGIN BOND
M  V30 1 2 1 2
M  V30 2 2 1 3
M  V30 3 1 1 4
M  V30 4 1 1 5
M  V30 5 2 5 6
M  V30 6 1 5 7
M  V30 7 1 6 8
M  V30 8 2 7 9
M  V30 9 2 8 10
M  V30 10 1 8 11
M  V30 11 1 11 12
M  V30 12 1 12 13
M  V30 13 2 13 14
M  V30 14 1 13 15
M  V30 15 2 15 16
M  V30 16 1 15 17
M  V30 17 1 16 18
M  V30 18 1 16 19
M  V30 19 2 17 20
M  V30 20 1 18 21
M  V30 21 2 18 22
M  V30 22 2 21 23
M  V30 23 1 21 24
M  V30 24 1 9 10
M  V30 25 1 20 22
M  V30 END BOND
M  V30 END CTAB
M  END
>  <Structure No>
491

>  <Catalog ID>
Z367584692

>  <MW (desalted)>
349.362

>  <ClogP>
1.246

>  <HBD>
2

>  <TPSA>
132.400

>  <RotBonds>
5

>  <Target>
ATM

>  <fromRegid>


>  <Similarity>


$$$$
Compound 492
Actelion Java MolfileCreator 2.0

  0  0  0  0  0  0              0 V3000
M  V30 BEGIN CTAB
M  V30 COUNTS 24 26 0 0 0
M  V30 BEGIN ATOM
M  V30 1 F 0.0 0.0 0.0 0
M  V30 2 C 1.2895 -0.7335 0.0 0
M  V30 3 C 1.2777 -2.2242 0.0 0
M  V30 4 C 2.5791 0.0236 0.0 0
M  V30 5 F -0.0354 -2.9695 0.0 0
M  V30 6 C 2.5673 -2.9695 0.0 0
M  V30 7 C 3.8687 -0.7098 0.0 0
M  V30 8 C 3.8569 -2.2005 0.0 0
M  V30 9 C 5.1583 0.0473 0.0 0 CFG=1
M  V30 10 N 5.1464 1.5616 0.0 0
M  V30 11 C 6.4478 -0.6861 0.0 0
M  V30 12 C 6.436 2.3307 0.0 0
M  V30 13 O 7.7256 1.5853 0.0 0
M  V30 14 C 6.4242 3.845 0.0 0
M  V30 15 N 5.1109 4.6022 0.0 0
M  V30 16 C 7.7138 4.6022 0.0 0
M  V30 17 N 5.0991 6.1166 0.0 0
M  V30 18 C 7.7019 6.1166 0.0 0
M  V30 19 C 9.0033 3.8569 0.0 0
M  V30 20 C 6.3887 6.8738 0.0 0
M  V30 21 C 8.9915 6.8738 0.0 0
M  V30 22 C 10.2929 4.614 0.0 0
M  V30 23 O 6.3769 8.3881 0.0 0
M  V30 24 C 10.2811 6.1402 0.0 0
M  V30 END ATOM
M  V30 BEGIN BOND
M  V30 1 1 1 2
M  V30 2 2 2 3
M  V30 3 1 2 4
M  V30 4 1 3 5
M  V30 5 1 3 6
M  V30 6 2 4 7
M  V30 7 2 6 8
M  V30 8 1 7 9
M  V30 9 1 9 10 CFG=1
M  V30 10 1 9 11
M  V30 11 1 10 12
M  V30 12 2 12 13
M  V30 13 1 12 14
M  V30 14 2 14 15
M  V30 15 1 14 16
M  V30 16 1 15 17
M  V30 17 2 16 18
M  V30 18 1 16 19
M  V30 19 1 17 20
M  V30 20 1 18 21
M  V30 21 2 19 22
M  V30 22 2 20 23
M  V30 23 2 21 24
M  V30 24 1 7 8
M  V30 25 1 18 20
M  V30 26 1 22 24
M  V30 END BOND
M  V30 BEGIN COLLECTION
M  V30 MDLV30/STERAC1 ATOMS=(1 9)
M  V30 END COLLECTION
M  V30 END CTAB
M  END
>  <Structure No>
492

>  <Catalog ID>
Z28547774

>  <MW (desalted)>
329.301

>  <ClogP>
1.685

>  <HBD>
2

>  <TPSA>
70.560

>  <RotBonds>
3

>  <Target>
CHK1

>  <fromRegid>


>  <Similarity>


$$$$
Compound 493
Actelion Java MolfileCreator 2.0

  0  0  0  0  0  0              0 V3000
M  V30 BEGIN CTAB
M  V30 COUNTS 24 26 0 0 0
M  V30 BEGIN ATOM
M  V30 1 S 0.0 0.0 0.0 0
M  V30 2 C -0.6282 -1.3631 0.0 0
M  V30 3 C -1.126 1.0193 0.0 0
M  V30 4 C -2.1335 -1.1971 0.0 0
M  V30 5 C 0.1185 -2.6551 0.0 0 CFG=1
M  V30 6 C -2.4417 0.2844 0.0 0
M  V30 7 N -0.64 -3.9471 0.0 0
M  V30 8 C 1.612 -2.6432 0.0 0
M  V30 9 C 0.1066 -5.2391 0.0 0
M  V30 10 C -2.1573 -3.9352 0.0 0
M  V30 11 N 2.3588 -3.9352 0.0 0
M  V30 12 C 3.8523 -3.9234 0.0 0
M  V30 13 O 4.5872 -2.6077 0.0 0
M  V30 14 C 4.5872 -5.2154 0.0 0
M  V30 15 N 6.0807 -5.2036 0.0 0
M  V30 16 C 3.8286 -6.5074 0.0 0
M  V30 17 N 6.8156 -6.4956 0.0 0
M  V30 18 C 4.5635 -7.7994 0.0 0
M  V30 19 C 2.3113 -6.4956 0.0 0
M  V30 20 C 6.057 -7.7876 0.0 0
M  V30 21 C 3.8049 -9.0914 0.0 0
M  V30 22 C 1.5409 -7.7876 0.0 0
M  V30 23 O 6.7919 -9.0796 0.0 0
M  V30 24 C 2.2876 -9.0796 0.0 0
M  V30 END ATOM
M  V30 BEGIN BOND
M  V30 1 1 1 2
M  V30 2 1 1 3
M  V30 3 2 2 4
M  V30 4 1 2 5
M  V30 5 2 3 6
M  V30 6 1 5 7 CFG=3
M  V30 7 1 5 8
M  V30 8 1 7 9
M  V30 9 1 7 10
M  V30 10 1 8 11
M  V30 11 1 11 12
M  V30 12 2 12 13
M  V30 13 1 12 14
M  V30 14 2 14 15
M  V30 15 1 14 16
M  V30 16 1 15 17
M  V30 17 2 16 18
M  V30 18 1 16 19
M  V30 19 1 17 20
M  V30 20 1 18 21
M  V30 21 2 19 22
M  V30 22 2 20 23
M  V30 23 2 21 24
M  V30 24 1 4 6
M  V30 25 1 18 20
M  V30 26 1 22 24
M  V30 END BOND
M  V30 BEGIN COLLECTION
M  V30 MDLV30/STERAC1 ATOMS=(1 5)
M  V30 END COLLECTION
M  V30 END CTAB
M  END
>  <Structure No>
493

>  <Catalog ID>
Z32203019

>  <MW (desalted)>
342.415

>  <ClogP>
0.886

>  <HBD>
2

>  <TPSA>
73.800

>  <RotBonds>
5

>  <Target>
parp2

>  <fromRegid>


>  <Similarity>


$$$$
Compound 494
Actelion Java MolfileCreator 2.0

  0  0  0  0  0  0              0 V3000
M  V30 BEGIN CTAB
M  V30 COUNTS 24 27 0 0 0
M  V30 BEGIN ATOM
M  V30 1 Cl 0.0 0.0 0.0 0
M  V30 2 C -0.0118 -1.4869 0.0 0
M  V30 3 C -1.3217 -2.2304 0.0 0
M  V30 4 C 1.2745 -2.2304 0.0 0
M  V30 5 C -1.3335 -3.7173 0.0 0
M  V30 6 C 1.2627 -3.7173 0.0 0
M  V30 7 C -0.0472 -4.449 0.0 0
M  V30 8 C -2.4546 -4.7086 0.0 0
M  V30 9 O -0.3658 -5.9005 0.0 0
M  V30 10 C -1.8527 -6.0657 0.0 0 CFG=2
M  V30 11 C -2.6198 -7.352 0.0 0
M  V30 12 O -1.8763 -8.6383 0.0 0
M  V30 13 N -4.1303 -7.3402 0.0 0
M  V30 14 C -4.8974 -8.6265 0.0 0
M  V30 15 C -4.8974 -6.0303 0.0 0
M  V30 16 C -6.4079 -8.6147 0.0 0
M  V30 17 C -6.4079 -6.0185 0.0 0
M  V30 18 C -7.1632 -7.3048 0.0 0
M  V30 19 N -8.0601 -8.5085 0.0 0
M  V30 20 C -8.0601 -6.0775 0.0 0
M  V30 21 C -9.4998 -8.0365 0.0 0
M  V30 22 O -7.6116 -4.6378 0.0 0
M  V30 23 N -9.4998 -6.5259 0.0 0
M  V30 24 O -10.7271 -8.9098 0.0 0
M  V30 END ATOM
M  V30 BEGIN BOND
M  V30 1 1 1 2
M  V30 2 2 2 3
M  V30 3 1 2 4
M  V30 4 1 3 5
M  V30 5 2 4 6
M  V30 6 2 5 7
M  V30 7 1 5 8
M  V30 8 1 7 9
M  V30 9 1 8 10
M  V30 10 1 10 11 CFG=3
M  V30 11 2 11 12
M  V30 12 1 11 13
M  V30 13 1 13 14
M  V30 14 1 13 15
M  V30 15 1 14 16
M  V30 16 1 15 17
M  V30 17 1 16 18
M  V30 18 1 18 19
M  V30 19 1 18 20
M  V30 20 1 19 21
M  V30 21 2 20 22
M  V30 22 1 20 23
M  V30 23 2 21 24
M  V30 24 1 6 7
M  V30 25 1 9 10
M  V30 26 1 17 18
M  V30 27 1 21 23
M  V30 END BOND
M  V30 BEGIN COLLECTION
M  V30 MDLV30/STERAC1 ATOMS=(1 10)
M  V30 END COLLECTION
M  V30 END CTAB
M  END
>  <Structure No>
494

>  <Catalog ID>
Z225729450

>  <MW (desalted)>
349.769

>  <ClogP>
-0.150

>  <HBD>
2

>  <TPSA>
87.740

>  <RotBonds>
1

>  <Target>
ATM

>  <fromRegid>


>  <Similarity>


$$$$
Compound 495
Actelion Java MolfileCreator 2.0

  0  0  0  0  0  0              0 V3000
M  V30 BEGIN CTAB
M  V30 COUNTS 24 26 0 0 0
M  V30 BEGIN ATOM
M  V30 1 O 0.0 0.0 0.0 0
M  V30 2 C 1.2878 0.7561 0.0 0
M  V30 3 N 1.276 2.2684 0.0 0
M  V30 4 C 2.5756 0.0118 0.0 0 CFG=1
M  V30 5 C -0.0354 3.0246 0.0 0
M  V30 6 C 2.5638 -1.4768 0.0 0
M  V30 7 C 3.8634 0.7679 0.0 0
M  V30 8 C -1.3468 2.292 0.0 0
M  V30 9 C -0.0472 4.5369 0.0 0
M  V30 10 C 3.8516 -2.2093 0.0 0
M  V30 11 C 1.2523 -2.2093 0.0 0
M  V30 12 N 5.1513 0.0236 0.0 0
M  V30 13 C -2.6583 3.0482 0.0 0
M  V30 14 C -1.3587 5.293 0.0 0
M  V30 15 C 3.8398 -3.698 0.0 0
M  V30 16 C 1.2405 -3.698 0.0 0
M  V30 17 C -3.9698 2.3157 0.0 0
M  V30 18 C -2.6701 4.5605 0.0 0
M  V30 19 C 2.5283 -4.4305 0.0 0
M  V30 20 N -4.1352 0.8388 0.0 0
M  V30 21 N -5.3521 2.9419 0.0 0
M  V30 22 N -5.612 0.5434 0.0 0
M  V30 23 C -6.3682 1.8431 0.0 0
M  V30 24 C -7.8687 2.0085 0.0 0
M  V30 END ATOM
M  V30 BEGIN BOND
M  V30 1 2 1 2
M  V30 2 1 2 3
M  V30 3 1 2 4
M  V30 4 1 3 5
M  V30 5 1 4 6
M  V30 6 1 4 7 CFG=3
M  V30 7 2 5 8
M  V30 8 1 5 9
M  V30 9 2 6 10
M  V30 10 1 6 11
M  V30 11 1 7 12
M  V30 12 1 8 13
M  V30 13 2 9 14
M  V30 14 1 10 15
M  V30 15 2 11 16
M  V30 16 1 13 17
M  V30 17 2 13 18
M  V30 18 2 15 19
M  V30 19 2 17 20
M  V30 20 1 17 21
M  V30 21 1 20 22
M  V30 22 2 21 23
M  V30 23 1 23 24
M  V30 24 1 14 18
M  V30 25 1 16 19
M  V30 26 1 22 23
M  V30 END BOND
M  V30 BEGIN COLLECTION
M  V30 MDLV30/STERAC1 ATOMS=(1 4)
M  V30 END COLLECTION
M  V30 END CTAB
M  END
>  <Structure No>
495

>  <Catalog ID>
Z1033096106

>  <MW (desalted)>
321.376

>  <ClogP>
2.048

>  <HBD>
3

>  <TPSA>
96.690

>  <RotBonds>
5

>  <Target>
CHK1

>  <fromRegid>


>  <Similarity>


$$$$
Compound 496
Actelion Java MolfileCreator 2.0

  0  0  0  0  0  0              0 V3000
M  V30 BEGIN CTAB
M  V30 COUNTS 24 27 0 0 0
M  V30 BEGIN ATOM
M  V30 1 O 0.0 0.0 0.0 0
M  V30 2 C -0.0118 -1.493 0.0 0
M  V30 3 N 1.2797 -2.2276 0.0 0
M  V30 4 C -1.3271 -2.2276 0.0 0
M  V30 5 C 2.5713 -1.4693 0.0 0
M  V30 6 N -1.493 -3.7088 0.0 0
M  V30 7 C -2.7135 -1.5996 0.0 0
M  V30 8 C 3.8629 -2.2039 0.0 0
M  V30 9 N -2.9742 -4.0051 0.0 0
M  V30 10 C -3.7325 -2.7016 0.0 0
M  V30 11 C -3.1874 -0.154 0.0 0
M  V30 12 C 5.1544 -1.4456 0.0 0
M  V30 13 C -5.2137 -2.3817 0.0 0
M  V30 14 C -4.6686 0.1658 0.0 0
M  V30 15 N 6.446 -2.1802 0.0 0
M  V30 16 C -5.6877 -0.9361 0.0 0
M  V30 17 C 6.5882 -3.6614 0.0 0
M  V30 18 C 7.8087 -1.5522 0.0 0
M  V30 19 C 8.0457 -3.9577 0.0 0
M  V30 20 C 5.5692 -4.7634 0.0 0
M  V30 21 N 8.8041 -2.6542 0.0 0
M  V30 22 C 8.496 -5.3796 0.0 0
M  V30 23 C 6.0195 -6.1853 0.0 0
M  V30 24 C 7.4769 -6.4816 0.0 0
M  V30 END ATOM
M  V30 BEGIN BOND
M  V30 1 2 1 2
M  V30 2 1 2 3
M  V30 3 1 2 4
M  V30 4 1 3 5
M  V30 5 2 4 6
M  V30 6 1 4 7
M  V30 7 1 5 8
M  V30 8 1 6 9
M  V30 9 2 7 10
M  V30 10 1 7 11
M  V30 11 1 8 12
M  V30 12 1 10 13
M  V30 13 2 11 14
M  V30 14 1 12 15
M  V30 15 2 13 16
M  V30 16 1 15 17
M  V30 17 1 15 18
M  V30 18 2 17 19
M  V30 19 1 17 20
M  V30 20 2 18 21
M  V30 21 1 19 22
M  V30 22 2 20 23
M  V30 23 2 22 24
M  V30 24 1 9 10
M  V30 25 1 14 16
M  V30 26 1 19 21
M  V30 27 1 23 24
M  V30 END BOND
M  V30 END CTAB
M  END
>  <Structure No>
496

>  <Catalog ID>
Z102447710

>  <MW (desalted)>
319.360

>  <ClogP>
3.063

>  <HBD>
2

>  <TPSA>
75.600

>  <RotBonds>
5

>  <Target>
CHK2

>  <fromRegid>


>  <Similarity>


$$$$
Compound 497
Actelion Java MolfileCreator 2.0

  0  0  0  0  0  0              0 V3000
M  V30 BEGIN CTAB
M  V30 COUNTS 24 27 0 0 0
M  V30 BEGIN ATOM
M  V30 1 S 0.0 0.0 0.0 0
M  V30 2 C -1.2264 -0.8677 0.0 0
M  V30 3 C 1.2032 -0.8677 0.0 0
M  V30 4 N -2.7073 -0.5437 0.0 0
M  V30 5 C -0.7751 -2.2792 0.0 0
M  V30 6 C 0.7288 -2.2792 0.0 0
M  V30 7 C 2.661 -0.5437 0.0 0
M  V30 8 C -3.7254 -1.6429 0.0 0
M  V30 9 C -1.7933 -3.3783 0.0 0
M  V30 10 C 1.7239 -3.3783 0.0 0
M  V30 11 C 3.656 -1.6429 0.0 0
M  V30 12 S -5.2064 -1.3189 0.0 0
M  V30 13 N -3.2742 -3.0544 0.0 0
M  V30 14 O -1.342 -4.7899 0.0 0
M  V30 15 C 3.1816 -3.0544 0.0 0
M  V30 16 C -5.6807 0.1156 0.0 0
M  V30 17 C -7.1617 0.4396 0.0 0
M  V30 18 O -8.1798 -0.6594 0.0 0
M  V30 19 N -7.636 1.8743 0.0 0
M  V30 20 C -9.117 2.1982 0.0 0
M  V30 21 C -6.641 2.9965 0.0 0
M  V30 22 C -9.5913 3.6329 0.0 0
M  V30 23 C -7.1154 4.4312 0.0 0
M  V30 24 O -8.5963 4.7551 0.0 0
M  V30 END ATOM
M  V30 BEGIN BOND
M  V30 1 1 1 2
M  V30 2 1 1 3
M  V30 3 1 2 4
M  V30 4 2 2 5
M  V30 5 2 3 6
M  V30 6 1 3 7
M  V30 7 2 4 8
M  V30 8 1 5 9
M  V30 9 1 6 10
M  V30 10 1 7 11
M  V30 11 1 8 12
M  V30 12 1 8 13
M  V30 13 2 9 14
M  V30 14 1 10 15
M  V30 15 1 12 16
M  V30 16 1 16 17
M  V30 17 2 17 18
M  V30 18 1 17 19
M  V30 19 1 19 20
M  V30 20 1 19 21
M  V30 21 1 20 22
M  V30 22 1 21 23
M  V30 23 1 22 24
M  V30 24 1 5 6
M  V30 25 1 9 13
M  V30 26 1 11 15
M  V30 27 1 23 24
M  V30 END BOND
M  V30 END CTAB
M  END
>  <Structure No>
497

>  <Catalog ID>
Z13685974

>  <MW (desalted)>
365.470

>  <ClogP>
1.981

>  <HBD>
1

>  <TPSA>
71.000

>  <RotBonds>
3

>  <Target>
Poly [ADP-ribose] polymerase-1

>  <fromRegid>
CHEMBL2440673

>  <Similarity>
0.94

$$$$
Compound 498
Actelion Java MolfileCreator 2.0

  0  0  0  0  0  0              0 V3000
M  V30 BEGIN CTAB
M  V30 COUNTS 24 27 0 0 0
M  V30 BEGIN ATOM
M  V30 1 O 0.0 0.0 0.0 0
M  V30 2 C -1.3106 0.7674 0.0 0
M  V30 3 N -2.6212 0.0236 0.0 0
M  V30 4 C -1.3224 2.2788 0.0 0
M  V30 5 C -2.633 -1.4641 0.0 0
M  V30 6 C -0.0354 3.0344 0.0 0
M  V30 7 C -2.633 3.0344 0.0 0
M  V30 8 C -3.9436 -2.1961 0.0 0
M  V30 9 N 1.2515 2.2906 0.0 0
M  V30 10 C -0.0472 4.5458 0.0 0
M  V30 11 C -2.6448 4.5458 0.0 0
M  V30 12 C -3.9554 -3.6838 0.0 0
M  V30 13 C 2.5385 3.0462 0.0 0
M  V30 14 C 1.2397 5.3014 0.0 0
M  V30 15 C -1.3578 5.3014 0.0 0
M  V30 16 C -5.1834 -4.5576 0.0 0
M  V30 17 C -2.7511 -4.5576 0.0 0
M  V30 18 C 2.5267 4.5576 0.0 0
M  V30 19 C -4.7347 -5.9745 0.0 0
M  V30 20 C -6.6593 -4.2388 0.0 0
M  V30 21 N -3.2233 -5.9745 0.0 0
M  V30 22 C -5.7501 -7.0725 0.0 0
M  V30 23 C -7.6747 -5.3369 0.0 0
M  V30 24 C -7.226 -6.7537 0.0 0
M  V30 END ATOM
M  V30 BEGIN BOND
M  V30 1 2 1 2
M  V30 2 1 2 3
M  V30 3 1 2 4
M  V30 4 1 3 5
M  V30 5 1 4 6
M  V30 6 2 4 7
M  V30 7 1 5 8
M  V30 8 2 6 9
M  V30 9 1 6 10
M  V30 10 1 7 11
M  V30 11 1 8 12
M  V30 12 1 9 13
M  V30 13 2 10 14
M  V30 14 1 10 15
M  V30 15 1 12 16
M  V30 16 2 12 17
M  V30 17 2 13 18
M  V30 18 2 16 19
M  V30 19 1 16 20
M  V30 20 1 17 21
M  V30 21 1 19 22
M  V30 22 2 20 23
M  V30 23 2 22 24
M  V30 24 2 11 15
M  V30 25 1 14 18
M  V30 26 1 19 21
M  V30 27 1 23 24
M  V30 END BOND
M  V30 END CTAB
M  END
>  <Structure No>
498

>  <Catalog ID>
Z62694752

>  <MW (desalted)>
315.368

>  <ClogP>
3.393

>  <HBD>
2

>  <TPSA>
57.780

>  <RotBonds>
4

>  <Target>
Poly [ADP-ribose] polymerase-1

>  <fromRegid>
CHEMBL559994

>  <Similarity>
0.87

$$$$
Compound 499
Actelion Java MolfileCreator 2.0

  0  0  0  0  0  0              0 V3000
M  V30 BEGIN CTAB
M  V30 COUNTS 24 27 0 0 0
M  V30 BEGIN ATOM
M  V30 1 O 0.0 0.0 0.0 0
M  V30 2 C -1.3104 0.7673 0.0 0
M  V30 3 N -2.6208 0.0236 0.0 0
M  V30 4 C -1.3222 2.2784 0.0 0
M  V30 5 C -2.6326 -1.4638 0.0 0
M  V30 6 C -0.0354 3.034 0.0 0
M  V30 7 C -2.6326 3.034 0.0 0
M  V30 8 C -3.943 -2.1958 0.0 0
M  V30 9 C -0.0472 4.5451 0.0 0
M  V30 10 C 1.2513 2.2902 0.0 0
M  V30 11 C -2.6444 4.5451 0.0 0
M  V30 12 C -3.9548 -3.6833 0.0 0
M  V30 13 N 1.2395 5.3007 0.0 0
M  V30 14 C -1.3576 5.3007 0.0 0
M  V30 15 C 2.5382 3.0458 0.0 0
M  V30 16 C -5.1826 -4.5569 0.0 0
M  V30 17 C -2.7507 -4.5569 0.0 0
M  V30 18 C 2.5263 4.5687 0.0 0
M  V30 19 C -4.734 -5.9736 0.0 0
M  V30 20 C -6.6583 -4.2382 0.0 0
M  V30 21 N -3.2229 -5.9736 0.0 0
M  V30 22 C -5.7493 -7.0715 0.0 0
M  V30 23 C -7.6736 -5.3361 0.0 0
M  V30 24 C -7.225 -6.7527 0.0 0
M  V30 END ATOM
M  V30 BEGIN BOND
M  V30 1 2 1 2
M  V30 2 1 2 3
M  V30 3 1 2 4
M  V30 4 1 3 5
M  V30 5 1 4 6
M  V30 6 2 4 7
M  V30 7 1 5 8
M  V30 8 1 6 9
M  V30 9 2 6 10
M  V30 10 1 7 11
M  V30 11 1 8 12
M  V30 12 2 9 13
M  V30 13 1 9 14
M  V30 14 1 10 15
M  V30 15 1 12 16
M  V30 16 2 12 17
M  V30 17 1 13 18
M  V30 18 2 16 19
M  V30 19 1 16 20
M  V30 20 1 17 21
M  V30 21 1 19 22
M  V30 22 2 20 23
M  V30 23 2 22 24
M  V30 24 2 11 14
M  V30 25 2 15 18
M  V30 26 1 19 21
M  V30 27 1 23 24
M  V30 END BOND
M  V30 END CTAB
M  END
>  <Structure No>
499

>  <Catalog ID>
Z228827278

>  <MW (desalted)>
315.368

>  <ClogP>
3.393

>  <HBD>
2

>  <TPSA>
57.780

>  <RotBonds>
4

>  <Target>
Poly [ADP-ribose] polymerase-1

>  <fromRegid>
CHEMBL343641

>  <Similarity>
0.93

$$$$
Compound 500
Actelion Java MolfileCreator 2.0

  0  0  0  0  0  0              0 V3000
M  V30 BEGIN CTAB
M  V30 COUNTS 25 28 0 0 0
M  V30 BEGIN ATOM
M  V30 1 O 0.0 0.0 0.0 0
M  V30 2 C 1.2864 0.7553 0.0 0
M  V30 3 O 2.5728 0.0236 0.0 0
M  V30 4 C 1.2746 2.266 0.0 0
M  V30 5 C 2.561 3.0331 0.0 0
M  V30 6 C -0.0354 3.0331 0.0 0
M  V30 7 C 2.5492 4.5438 0.0 0
M  V30 8 C 3.8475 2.2896 0.0 0
M  V30 9 C -0.0472 4.5438 0.0 0
M  V30 10 C -1.3454 2.2896 0.0 0
M  V30 11 N 1.2392 5.2991 0.0 0
M  V30 12 C 3.8357 5.2991 0.0 0
M  V30 13 C 5.1339 3.0567 0.0 0
M  V30 14 C -1.3572 5.2991 0.0 0
M  V30 15 C -2.6554 3.0567 0.0 0 CFG=2
M  V30 16 C 5.1221 4.5556 0.0 0
M  V30 17 C -1.369 6.8098 0.0 0
M  V30 18 C -2.6672 4.5556 0.0 0
M  V30 19 C -3.9655 2.3132 0.0 0
M  V30 20 C -0.0826 7.5652 0.0 0
M  V30 21 C -0.0944 9.0758 0.0 0
M  V30 22 C 1.2038 6.8334 0.0 0
M  V30 23 C 1.192 9.8312 0.0 0
M  V30 24 C 2.4902 7.5888 0.0 0
M  V30 25 C 2.4784 9.0994 0.0 0
M  V30 END ATOM
M  V30 BEGIN BOND
M  V30 1 2 1 2
M  V30 2 1 2 3
M  V30 3 1 2 4
M  V30 4 1 4 5
M  V30 5 2 4 6
M  V30 6 1 5 7
M  V30 7 2 5 8
M  V30 8 1 6 9
M  V30 9 1 6 10
M  V30 10 1 7 11
M  V30 11 2 7 12
M  V30 12 1 8 13
M  V30 13 1 9 14
M  V30 14 1 10 15
M  V30 15 1 12 16
M  V30 16 2 14 17 CFG=2
M  V30 17 1 14 18
M  V30 18 1 15 19 CFG=1
M  V30 19 1 17 20
M  V30 20 2 20 21
M  V30 21 1 20 22
M  V30 22 1 21 23
M  V30 23 2 22 24
M  V30 24 2 23 25
M  V30 25 2 9 11
M  V30 26 2 13 16
M  V30 27 1 15 18
M  V30 28 1 24 25
M  V30 END BOND
M  V30 BEGIN COLLECTION
M  V30 MDLV30/STERAC1 ATOMS=(1 15)
M  V30 END COLLECTION
M  V30 END CTAB
M  END
>  <Structure No>
500

>  <Catalog ID>
Z46107792

>  <MW (desalted)>
329.392

>  <ClogP>
6.057

>  <HBD>
1

>  <TPSA>
50.190

>  <RotBonds>
2

>  <Target>
Serine/threonine-protein kinase Chk2

>  <fromRegid>
CHEMBL1996831

>  <Similarity>
0.88

$$$$
Compound 501
Actelion Java MolfileCreator 2.0

  0  0  0  0  0  0              0 V3000
M  V30 BEGIN CTAB
M  V30 COUNTS 25 27 0 0 0
M  V30 BEGIN ATOM
M  V30 1 O 0.0 0.0 0.0 0
M  V30 2 C 1.2847 -0.7425 0.0 0
M  V30 3 O 2.5695 0.0117 0.0 0
M  V30 4 C 1.2729 -2.2277 0.0 0
M  V30 5 C -0.0353 -2.9702 0.0 0
M  V30 6 C 2.5577 -2.9702 0.0 0
M  V30 7 N -1.3437 -2.2041 0.0 0
M  V30 8 C -0.0471 -4.4554 0.0 0
M  V30 9 C 2.5459 -4.4554 0.0 0
M  V30 10 C -2.652 -2.9467 0.0 0
M  V30 11 C 1.2376 -5.1862 0.0 0
M  V30 12 O -2.6638 -4.4318 0.0 0
M  V30 13 C -3.9603 -2.1805 0.0 0
M  V30 14 C -5.2687 -2.9231 0.0 0
M  V30 15 C -3.9721 -0.6718 0.0 0
M  V30 16 C -6.577 -2.157 0.0 0
M  V30 17 C -5.2805 0.0825 0.0 0
M  V30 18 C -6.5888 -0.6482 0.0 0
M  V30 19 O -7.8972 0.106 0.0 0
M  V30 20 C -7.909 1.6148 0.0 0
M  V30 21 C -9.2173 2.3691 0.0 0
M  V30 22 C -6.6242 2.3691 0.0 0
M  V30 23 C -9.2291 3.8778 0.0 0
M  V30 24 C -6.636 3.8778 0.0 0
M  V30 25 C -7.9443 4.6322 0.0 0
M  V30 END ATOM
M  V30 BEGIN BOND
M  V30 1 2 1 2
M  V30 2 1 2 3
M  V30 3 1 2 4
M  V30 4 2 4 5
M  V30 5 1 4 6
M  V30 6 1 5 7
M  V30 7 1 5 8
M  V30 8 2 6 9
M  V30 9 1 7 10
M  V30 10 2 8 11
M  V30 11 2 10 12
M  V30 12 1 10 13
M  V30 13 2 13 14
M  V30 14 1 13 15
M  V30 15 1 14 16
M  V30 16 2 15 17
M  V30 17 2 16 18
M  V30 18 1 18 19
M  V30 19 1 19 20
M  V30 20 2 20 21
M  V30 21 1 20 22
M  V30 22 1 21 23
M  V30 23 2 22 24
M  V30 24 2 23 25
M  V30 25 1 9 11
M  V30 26 1 17 18
M  V30 27 1 24 25
M  V30 END BOND
M  V30 END CTAB
M  END
>  <Structure No>
501

>  <Catalog ID>
Z85878902

>  <MW (desalted)>
333.337

>  <ClogP>
5.415

>  <HBD>
2

>  <TPSA>
75.630

>  <RotBonds>
5

>  <Target>
Serine/threonine-protein kinase Chk1

>  <fromRegid>
CHEMBL1997495

>  <Similarity>
0.87

$$$$
Compound 502
Actelion Java MolfileCreator 2.0

  0  0  0  0  0  0              0 V3000
M  V30 BEGIN CTAB
M  V30 COUNTS 25 26 0 0 0
M  V30 BEGIN ATOM
M  V30 1 O 0.0 0.0 0.0 0
M  V30 2 C 1.2935 -0.7357 0.0 0
M  V30 3 N 2.5871 0.0237 0.0 0
M  V30 4 C 1.2817 -2.2311 0.0 0
M  V30 5 C 2.5752 1.5428 0.0 0
M  V30 6 C 3.8807 -0.712 0.0 0
M  V30 7 C -0.0356 -2.9787 0.0 0
M  V30 8 C 2.5752 -2.9787 0.0 0
M  V30 9 C -0.0474 -4.4741 0.0 0
M  V30 10 C 2.5634 -4.4741 0.0 0
M  V30 11 N -1.3647 -5.2099 0.0 0
M  V30 12 C 1.2461 -5.2099 0.0 0
M  V30 13 C -1.3766 -6.7052 0.0 0
M  V30 14 O -2.6939 -7.441 0.0 0
M  V30 15 C -0.083 -7.441 0.0 0
M  V30 16 C -0.0949 -8.9363 0.0 0
M  V30 17 C 1.3647 -8.5922 0.0 0
M  V30 18 C 0.5459 -10.2774 0.0 0
M  V30 19 C -1.5784 -8.5922 0.0 0
M  V30 20 O 2.3735 -9.684 0.0 0
M  V30 21 O 1.792 -7.1443 0.0 0
M  V30 22 C -0.1186 -11.6185 0.0 0
M  V30 23 C -2.7651 -9.5179 0.0 0
M  V30 24 C -1.6021 -11.9389 0.0 0
M  V30 25 C -2.777 -11.0132 0.0 0
M  V30 END ATOM
M  V30 BEGIN BOND
M  V30 1 2 1 2
M  V30 2 1 2 3
M  V30 3 1 2 4
M  V30 4 1 3 5
M  V30 5 1 3 6
M  V30 6 2 4 7
M  V30 7 1 4 8
M  V30 8 1 7 9
M  V30 9 2 8 10
M  V30 10 1 9 11
M  V30 11 2 9 12
M  V30 12 1 11 13
M  V30 13 2 13 14
M  V30 14 1 13 15
M  V30 15 1 15 16
M  V30 16 1 16 17
M  V30 17 1 16 18
M  V30 18 1 16 19
M  V30 19 2 17 20
M  V30 20 1 17 21
M  V30 21 1 18 22
M  V30 22 1 19 23
M  V30 23 1 22 24
M  V30 24 1 23 25
M  V30 25 1 10 12
M  V30 26 1 24 25
M  V30 END BOND
M  V30 END CTAB
M  END
>  <Structure No>
502

>  <Catalog ID>
Z240928614

>  <MW (desalted)>
346.421

>  <ClogP>
2.458

>  <HBD>
2

>  <TPSA>
86.710

>  <RotBonds>
5

>  <Target>
Poly [ADP-ribose] polymerase-1

>  <fromRegid>
CHEMBL3414766

>  <Similarity>
0.88

$$$$
Compound 503
Actelion Java MolfileCreator 2.0

  0  0  0  0  0  0              0 V3000
M  V30 BEGIN CTAB
M  V30 COUNTS 25 26 0 0 0
M  V30 BEGIN ATOM
M  V30 1 O 0.0 0.0 0.0 0
M  V30 2 C 1.2931 -0.7355 0.0 0
M  V30 3 N 2.5863 0.0237 0.0 0
M  V30 4 C 1.2813 -2.2304 0.0 0
M  V30 5 C 2.5745 1.5423 0.0 0
M  V30 6 C -0.0355 -2.9778 0.0 0
M  V30 7 C 2.5745 -2.9778 0.0 0
M  V30 8 C 3.8677 2.3016 0.0 0
M  V30 9 C -0.0474 -4.4727 0.0 0
M  V30 10 C 2.5626 -4.4727 0.0 0
M  V30 11 N -1.3643 -5.2083 0.0 0
M  V30 12 C 1.2457 -5.2083 0.0 0
M  V30 13 C -1.3762 -6.7032 0.0 0
M  V30 14 O -2.6931 -7.4387 0.0 0
M  V30 15 C -0.083 -7.4387 0.0 0
M  V30 16 C -0.0949 -8.9336 0.0 0
M  V30 17 C 1.3643 -8.5896 0.0 0
M  V30 18 C 0.5457 -10.2743 0.0 0
M  V30 19 C -1.5779 -8.5896 0.0 0
M  V30 20 O 2.3728 -9.6811 0.0 0
M  V30 21 O 1.7914 -7.1421 0.0 0
M  V30 22 C -0.1186 -11.6149 0.0 0
M  V30 23 C -2.7643 -9.515 0.0 0
M  V30 24 C -1.6016 -11.9352 0.0 0
M  V30 25 C -2.7762 -11.0098 0.0 0
M  V30 END ATOM
M  V30 BEGIN BOND
M  V30 1 2 1 2
M  V30 2 1 2 3
M  V30 3 1 2 4
M  V30 4 1 3 5
M  V30 5 2 4 6
M  V30 6 1 4 7
M  V30 7 1 5 8
M  V30 8 1 6 9
M  V30 9 2 7 10
M  V30 10 1 9 11
M  V30 11 2 9 12
M  V30 12 1 11 13
M  V30 13 2 13 14
M  V30 14 1 13 15
M  V30 15 1 15 16
M  V30 16 1 16 17
M  V30 17 1 16 18
M  V30 18 1 16 19
M  V30 19 2 17 20
M  V30 20 1 17 21
M  V30 21 1 18 22
M  V30 22 1 19 23
M  V30 23 1 22 24
M  V30 24 1 23 25
M  V30 25 1 10 12
M  V30 26 1 24 25
M  V30 END BOND
M  V30 END CTAB
M  END
>  <Structure No>
503

>  <Catalog ID>
Z169894146

>  <MW (desalted)>
346.421

>  <ClogP>
3.066

>  <HBD>
3

>  <TPSA>
95.500

>  <RotBonds>
6

>  <Target>
Poly [ADP-ribose] polymerase-1

>  <fromRegid>
CHEMBL3414766

>  <Similarity>
0.88

$$$$
Compound 504
Actelion Java MolfileCreator 2.0

  0  0  0  0  0  0              0 V3000
M  V30 BEGIN CTAB
M  V30 COUNTS 25 26 0 0 0
M  V30 BEGIN ATOM
M  V30 1 O 0.0 0.0 0.0 0
M  V30 2 C 1.2853 -0.7429 0.0 0
M  V30 3 O 2.5707 0.0117 0.0 0
M  V30 4 C 1.2736 -2.2288 0.0 0
M  V30 5 C 3.8561 -0.7311 0.0 0
M  V30 6 C -0.0353 -2.9717 0.0 0
M  V30 7 C 2.559 -2.9717 0.0 0
M  V30 8 N -1.3443 -2.2052 0.0 0
M  V30 9 C -0.0471 -4.4576 0.0 0
M  V30 10 C 2.5472 -4.4576 0.0 0
M  V30 11 C -2.6533 -2.9481 0.0 0
M  V30 12 C 1.2382 -5.1887 0.0 0
M  V30 13 O -2.6651 -4.434 0.0 0
M  V30 14 C -3.9623 -2.1816 0.0 0
M  V30 15 C -5.2713 -2.9245 0.0 0
M  V30 16 C -3.9741 -0.6721 0.0 0
M  V30 17 C -6.5802 -2.158 0.0 0
M  V30 18 C -5.2831 0.0825 0.0 0
M  V30 19 O -7.8892 -2.9009 0.0 0
M  V30 20 C -6.592 -0.6485 0.0 0
M  V30 21 O -5.2948 1.592 0.0 0
M  V30 22 C -9.1982 -2.1344 0.0 0
M  V30 23 O -7.901 0.1061 0.0 0
M  V30 24 C -4.0095 2.3467 0.0 0
M  V30 25 C -9.21 -0.6368 0.0 0
M  V30 END ATOM
M  V30 BEGIN BOND
M  V30 1 2 1 2
M  V30 2 1 2 3
M  V30 3 1 2 4
M  V30 4 1 3 5
M  V30 5 2 4 6
M  V30 6 1 4 7
M  V30 7 1 6 8
M  V30 8 1 6 9
M  V30 9 2 7 10
M  V30 10 1 8 11
M  V30 11 2 9 12
M  V30 12 2 11 13
M  V30 13 1 11 14
M  V30 14 2 14 15
M  V30 15 1 14 16
M  V30 16 1 15 17
M  V30 17 2 16 18
M  V30 18 1 17 19
M  V30 19 2 17 20
M  V30 20 1 18 21
M  V30 21 1 19 22
M  V30 22 1 20 23
M  V30 23 1 21 24
M  V30 24 1 23 25
M  V30 25 1 10 12
M  V30 26 1 18 20
M  V30 END BOND
M  V30 END CTAB
M  END
>  <Structure No>
504

>  <Catalog ID>
Z27656096

>  <MW (desalted)>
345.347

>  <ClogP>
2.456

>  <HBD>
1

>  <TPSA>
83.090

>  <RotBonds>
7

>  <Target>
Serine/threonine-protein kinase Chk1

>  <fromRegid>
CHEMBL1997495

>  <Similarity>
0.92

$$$$
Compound 505
Actelion Java MolfileCreator 2.0

  0  0  0  0  0  0              0 V3000
M  V30 BEGIN CTAB
M  V30 COUNTS 25 27 0 0 0
M  V30 BEGIN ATOM
M  V30 1 S 0.0 0.0 0.0 0
M  V30 2 C 0.734 -1.2905 0.0 0
M  V30 3 C -1.48 -0.296 0.0 0
M  V30 4 N -0.2841 -2.3917 0.0 0
M  V30 5 N 2.2141 -1.4326 0.0 0
M  V30 6 C -1.6458 -1.776 0.0 0
M  V30 7 C 3.0903 -0.2012 0.0 0
M  V30 8 C -2.96 -2.5101 0.0 0
M  V30 9 O 2.4627 1.184 0.0 0
M  V30 10 C 4.5703 -0.3433 0.0 0
M  V30 11 C -4.2743 -1.7523 0.0 0
M  V30 12 N 5.1742 -1.705 0.0 0
M  V30 13 C 5.4465 0.888 0.0 0
M  V30 14 O -4.2861 -0.2368 0.0 0
M  V30 15 O -5.5886 -2.4864 0.0 0
M  V30 16 C 6.6542 -1.847 0.0 0
M  V30 17 C 6.9265 0.7459 0.0 0
M  V30 18 C -6.9028 -1.7286 0.0 0
M  V30 19 O 7.2581 -3.2087 0.0 0
M  V30 20 C 7.5304 -0.6156 0.0 0
M  V30 21 C 7.8027 1.9773 0.0 0
M  V30 22 C -8.2171 -2.4627 0.0 0
M  V30 23 C 9.0104 -0.7577 0.0 0
M  V30 24 C 9.2827 1.8352 0.0 0
M  V30 25 C 9.8866 0.4736 0.0 0
M  V30 END ATOM
M  V30 BEGIN BOND
M  V30 1 1 1 2
M  V30 2 1 1 3
M  V30 3 2 2 4
M  V30 4 1 2 5
M  V30 5 2 3 6
M  V30 6 1 5 7
M  V30 7 1 6 8
M  V30 8 2 7 9
M  V30 9 1 7 10
M  V30 10 1 8 11
M  V30 11 1 10 12
M  V30 12 2 10 13
M  V30 13 2 11 14
M  V30 14 1 11 15
M  V30 15 1 12 16
M  V30 16 1 13 17
M  V30 17 1 15 18
M  V30 18 2 16 19
M  V30 19 1 16 20
M  V30 20 1 17 21
M  V30 21 1 18 22
M  V30 22 1 20 23
M  V30 23 2 21 24
M  V30 24 2 23 25
M  V30 25 1 4 6
M  V30 26 2 17 20
M  V30 27 1 24 25
M  V30 END BOND
M  V30 END CTAB
M  END
>  <Structure No>
505

>  <Catalog ID>
Z225998254

>  <MW (desalted)>
357.384

>  <ClogP>
1.072

>  <HBD>
2

>  <TPSA>
97.390

>  <RotBonds>
6

>  <Target>
Tankyrase1

>  <fromRegid>


>  <Similarity>


$$$$
Compound 506
Actelion Java MolfileCreator 2.0

  0  0  0  0  0  0              0 V3000
M  V30 BEGIN CTAB
M  V30 COUNTS 25 28 0 0 0
M  V30 BEGIN ATOM
M  V30 1 O 0.0 0.0 0.0 0
M  V30 2 C -0.0117 1.5047 0.0 0
M  V30 3 N -1.3166 2.2689 0.0 0
M  V30 4 C 1.2696 2.2689 0.0 0
M  V30 5 C -1.3284 3.7737 0.0 0
M  V30 6 C 1.2579 3.7737 0.0 0
M  V30 7 C 2.551 1.5283 0.0 0
M  V30 8 C -2.6333 4.5261 0.0 0
M  V30 9 C -0.047 4.5261 0.0 0
M  V30 10 C 2.5393 4.5261 0.0 0
M  V30 11 C 3.8325 2.2924 0.0 0
M  V30 12 O -2.6451 6.0309 0.0 0
M  V30 13 N -3.9383 3.7972 0.0 0
M  V30 14 C 3.8207 3.7972 0.0 0
M  V30 15 C -5.2432 4.5496 0.0 0
M  V30 16 C -6.5481 3.8207 0.0 0
M  V30 17 C -7.8531 4.5731 0.0 0
M  V30 18 N -9.2285 3.9735 0.0 0
M  V30 19 N -8.0177 6.0661 0.0 0
M  V30 20 C -10.2396 5.0904 0.0 0
M  V30 21 C -9.4872 6.3835 0.0 0
M  V30 22 C -11.7444 5.1021 0.0 0
M  V30 23 C -10.2396 7.6885 0.0 0
M  V30 24 C -12.5085 6.4071 0.0 0
M  V30 25 C -11.7444 7.7002 0.0 0
M  V30 END ATOM
M  V30 BEGIN BOND
M  V30 1 2 1 2
M  V30 2 1 2 3
M  V30 3 1 2 4
M  V30 4 1 3 5
M  V30 5 2 4 6
M  V30 6 1 4 7
M  V30 7 1 5 8
M  V30 8 2 5 9
M  V30 9 1 6 10
M  V30 10 2 7 11
M  V30 11 2 8 12
M  V30 12 1 8 13
M  V30 13 2 10 14
M  V30 14 1 13 15
M  V30 15 1 15 16
M  V30 16 1 16 17
M  V30 17 2 17 18
M  V30 18 1 17 19
M  V30 19 1 18 20
M  V30 20 1 19 21
M  V30 21 1 20 22
M  V30 22 1 21 23
M  V30 23 2 22 24
M  V30 24 2 23 25
M  V30 25 1 6 9
M  V30 26 1 11 14
M  V30 27 2 20 21
M  V30 28 1 24 25
M  V30 END BOND
M  V30 END CTAB
M  END
>  <Structure No>
506

>  <Catalog ID>
Z167201228

>  <MW (desalted)>
332.356

>  <ClogP>
1.405

>  <HBD>
3

>  <TPSA>
86.880

>  <RotBonds>
4

>  <Target>
parp15, Tankyrase1, parp1

>  <fromRegid>


>  <Similarity>


$$$$
Compound 507
Actelion Java MolfileCreator 2.0

  0  0  0  0  0  0              0 V3000
M  V30 BEGIN CTAB
M  V30 COUNTS 25 28 0 0 0
M  V30 BEGIN ATOM
M  V30 1 S 0.0 0.0 0.0 0
M  V30 2 C -1.3149 0.77 0.0 0
M  V30 3 C 1.2912 0.77 0.0 0
M  V30 4 N -1.4808 2.2745 0.0 0
M  V30 5 N -2.701 0.1658 0.0 0
M  V30 6 C 2.5825 0.0236 0.0 0
M  V30 7 N -2.9616 2.5944 0.0 0
M  V30 8 N -3.7198 1.2912 0.0 0
M  V30 9 C -3.0209 -1.2912 0.0 0
M  V30 10 N 3.8738 0.7937 0.0 0
M  V30 11 N 2.5707 -1.4689 0.0 0
M  V30 12 C -4.4662 -1.7414 0.0 0
M  V30 13 C -1.9191 -2.2864 0.0 0
M  V30 14 C 5.1651 0.0473 0.0 0
M  V30 15 C 3.862 -2.2153 0.0 0
M  V30 16 C -4.786 -3.1986 0.0 0
M  V30 17 C -2.239 -3.7435 0.0 0
M  V30 18 C 5.1533 -1.4452 0.0 0
M  V30 19 C 6.4564 0.8174 0.0 0
M  V30 20 O 3.8501 -3.708 0.0 0
M  V30 21 C -3.6843 -4.1937 0.0 0
M  V30 22 C 6.4446 -2.1916 0.0 0
M  V30 23 C 7.7477 0.071 0.0 0
M  V30 24 O -4.0041 -5.6508 0.0 0
M  V30 25 C 7.7359 -1.4216 0.0 0
M  V30 END ATOM
M  V30 BEGIN BOND
M  V30 1 1 1 2
M  V30 2 1 1 3
M  V30 3 2 2 4
M  V30 4 1 2 5
M  V30 5 1 3 6
M  V30 6 1 4 7
M  V30 7 1 5 8
M  V30 8 1 5 9
M  V30 9 2 6 10
M  V30 10 1 6 11
M  V30 11 2 9 12
M  V30 12 1 9 13
M  V30 13 1 10 14
M  V30 14 1 11 15
M  V30 15 1 12 16
M  V30 16 2 13 17
M  V30 17 2 14 18
M  V30 18 1 14 19
M  V30 19 2 15 20
M  V30 20 2 16 21
M  V30 21 1 18 22
M  V30 22 2 19 23
M  V30 23 1 21 24
M  V30 24 2 22 25
M  V30 25 2 7 8
M  V30 26 1 15 18
M  V30 27 1 17 21
M  V30 28 1 23 25
M  V30 END BOND
M  V30 END CTAB
M  END
>  <Structure No>
507

>  <Catalog ID>
Z25096582

>  <MW (desalted)>
352.370

>  <ClogP>
1.586

>  <HBD>
2

>  <TPSA>
105.290

>  <RotBonds>
4

>  <Target>
parp1, parp2

>  <fromRegid>


>  <Similarity>


$$$$
Compound 508
Actelion Java MolfileCreator 2.0

  0  0  0  0  0  0              0 V3000
M  V30 BEGIN CTAB
M  V30 COUNTS 25 26 0 0 0
M  V30 BEGIN ATOM
M  V30 1 O 0.0 0.0 0.0 0
M  V30 2 C -1.3046 0.7639 0.0 0
M  V30 3 N -1.3164 2.2684 0.0 0
M  V30 4 C -2.6093 0.0235 0.0 0
M  V30 5 N -2.621 3.0207 0.0 0
M  V30 6 C -3.914 0.7875 0.0 0
M  V30 7 C -2.621 -1.4574 0.0 0
M  V30 8 C -3.9257 2.2802 0.0 0
M  V30 9 C -5.2186 0.047 0.0 0
M  V30 10 C -3.9257 -2.1862 0.0 0
M  V30 11 C -5.2304 3.0324 0.0 0
M  V30 12 C -5.2304 -1.4339 0.0 0
M  V30 13 O -6.5351 2.2919 0.0 0
M  V30 14 N -5.2421 4.5369 0.0 0
M  V30 15 C -3.961 5.2892 0.0 0
M  V30 16 C -6.5468 5.2892 0.0 0
M  V30 17 C -3.9727 6.7936 0.0 0
M  V30 18 C -7.8515 4.5604 0.0 0
M  V30 19 C -5.2774 7.5459 0.0 0
M  V30 20 C -2.6916 7.5459 0.0 0
M  V30 21 N -9.1562 5.3127 0.0 0
M  V30 22 C -10.4608 4.5839 0.0 0
M  V30 23 C -9.1679 6.8172 0.0 0
M  V30 24 C -11.7655 5.3362 0.0 0
M  V30 25 C -10.4726 7.5694 0.0 0
M  V30 END ATOM
M  V30 BEGIN BOND
M  V30 1 2 1 2
M  V30 2 1 2 3
M  V30 3 1 2 4
M  V30 4 1 3 5
M  V30 5 2 4 6
M  V30 6 1 4 7
M  V30 7 2 5 8
M  V30 8 1 6 9
M  V30 9 2 7 10
M  V30 10 1 8 11
M  V30 11 2 9 12
M  V30 12 2 11 13
M  V30 13 1 11 14
M  V30 14 1 14 15
M  V30 15 1 14 16
M  V30 16 1 15 17
M  V30 17 1 16 18
M  V30 18 1 17 19
M  V30 19 1 17 20
M  V30 20 1 18 21
M  V30 21 1 21 22
M  V30 22 1 21 23
M  V30 23 1 22 24
M  V30 24 1 23 25
M  V30 25 1 6 8
M  V30 26 1 10 12
M  V30 END BOND
M  V30 END CTAB
M  END
>  <Structure No>
508

>  <Catalog ID>
Z608784116

>  <MW (desalted)>
344.451

>  <ClogP>
1.928

>  <HBD>
1

>  <TPSA>
65.010

>  <RotBonds>
8

>  <Target>
Poly [ADP-ribose] polymerase-1

>  <fromRegid>
CHEMBL3105422

>  <Similarity>
0.85

$$$$
Compound 509
Actelion Java MolfileCreator 2.0

  0  0  0  0  0  0              0 V3000
M  V30 BEGIN CTAB
M  V30 COUNTS 25 27 0 0 0
M  V30 BEGIN ATOM
M  V30 1 F 0.0 0.0 0.0 0
M  V30 2 C 1.2952 0.7605 0.0 0
M  V30 3 C 2.5905 0.0237 0.0 0
M  V30 4 C 1.2834 2.2816 0.0 0
M  V30 5 C 3.8858 0.7843 0.0 0
M  V30 6 C 2.5787 3.0421 0.0 0
M  V30 7 C 3.8739 2.3053 0.0 0
M  V30 8 O 5.1692 3.0659 0.0 0
M  V30 9 C 6.4645 2.3291 0.0 0
M  V30 10 C 7.7598 3.0896 0.0 0
M  V30 11 N 9.0551 2.3529 0.0 0
M  V30 12 C 10.3504 3.1134 0.0 0
M  V30 13 C 9.0432 0.8556 0.0 0
M  V30 14 O 10.3385 4.6345 0.0 0
M  V30 15 C 11.6457 2.3766 0.0 0
M  V30 16 N 12.941 3.1372 0.0 0
M  V30 17 C 11.6338 0.8793 0.0 0
M  V30 18 N 14.2363 2.4004 0.0 0
M  V30 19 C 12.9291 0.1426 0.0 0
M  V30 20 C 10.3148 0.1426 0.0 0
M  V30 21 C 14.2244 0.9031 0.0 0
M  V30 22 C 12.9172 -1.3547 0.0 0
M  V30 23 C 10.3029 -1.3547 0.0 0
M  V30 24 O 15.5197 0.1663 0.0 0
M  V30 25 C 11.5982 -2.0914 0.0 0
M  V30 END ATOM
M  V30 BEGIN BOND
M  V30 1 1 1 2
M  V30 2 2 2 3
M  V30 3 1 2 4
M  V30 4 1 3 5
M  V30 5 2 4 6
M  V30 6 2 5 7
M  V30 7 1 7 8
M  V30 8 1 8 9
M  V30 9 1 9 10
M  V30 10 1 10 11
M  V30 11 1 11 12
M  V30 12 1 11 13
M  V30 13 2 12 14
M  V30 14 1 12 15
M  V30 15 2 15 16
M  V30 16 1 15 17
M  V30 17 1 16 18
M  V30 18 2 17 19
M  V30 19 1 17 20
M  V30 20 1 18 21
M  V30 21 1 19 22
M  V30 22 2 20 23
M  V30 23 2 21 24
M  V30 24 2 22 25
M  V30 25 1 6 7
M  V30 26 1 19 21
M  V30 27 1 23 25
M  V30 END BOND
M  V30 END CTAB
M  END
>  <Structure No>
509

>  <Catalog ID>
Z119834214

>  <MW (desalted)>
341.336

>  <ClogP>
1.281

>  <HBD>
1

>  <TPSA>
71.000

>  <RotBonds>
5

>  <Target>
parp10

>  <fromRegid>


>  <Similarity>


$$$$
Compound 510
Actelion Java MolfileCreator 2.0

  0  0  0  0  0  0              0 V3000
M  V30 BEGIN CTAB
M  V30 COUNTS 25 27 0 0 0
M  V30 BEGIN ATOM
M  V30 1 O 0.0 0.0 0.0 0
M  V30 2 C -1.0146 1.1208 0.0 0
M  V30 3 N -2.4893 0.8258 0.0 0
M  V30 4 C -0.5663 2.5601 0.0 0
M  V30 5 C -2.9613 -0.5899 0.0 0
M  V30 6 C 0.8494 3.032 0.0 0
M  V30 7 C -1.4629 3.7871 0.0 0
M  V30 8 C -4.436 -0.8848 0.0 0
M  V30 9 C 0.8376 4.5422 0.0 0
M  V30 10 C 2.1354 2.2888 0.0 0
M  V30 11 N -0.5899 5.0141 0.0 0
M  V30 12 C -5.4506 0.2359 0.0 0
M  V30 13 C -4.9079 -2.3006 0.0 0
M  V30 14 C 2.1236 5.3091 0.0 0
M  V30 15 C 3.4214 3.0556 0.0 0
M  V30 16 C -6.9254 -0.0589 0.0 0
M  V30 17 C -6.3827 -2.5955 0.0 0
M  V30 18 C 3.4096 4.5658 0.0 0
M  V30 19 C -7.3973 -1.4747 0.0 0
M  V30 20 C -8.8721 -1.7697 0.0 0
M  V30 21 N -9.344 -3.1854 0.0 0
M  V30 22 C -10.8188 -3.4804 0.0 0
M  V30 23 C -8.353 -4.2826 0.0 0
M  V30 24 C -11.2907 -4.8961 0.0 0
M  V30 25 C -6.9018 -3.9641 0.0 0
M  V30 END ATOM
M  V30 BEGIN BOND
M  V30 1 2 1 2
M  V30 2 1 2 3
M  V30 3 1 2 4
M  V30 4 1 3 5
M  V30 5 1 4 6
M  V30 6 2 4 7
M  V30 7 1 5 8
M  V30 8 2 6 9
M  V30 9 1 6 10
M  V30 10 1 7 11
M  V30 11 2 8 12
M  V30 12 1 8 13
M  V30 13 1 9 14
M  V30 14 2 10 15
M  V30 15 1 12 16
M  V30 16 2 13 17
M  V30 17 2 14 18
M  V30 18 2 16 19
M  V30 19 1 19 20
M  V30 20 1 20 21
M  V30 21 1 21 22
M  V30 22 1 21 23
M  V30 23 1 22 24
M  V30 24 1 23 25
M  V30 25 1 9 11
M  V30 26 1 15 18
M  V30 27 1 17 19
M  V30 END BOND
M  V30 END CTAB
M  END
>  <Structure No>
510

>  <Catalog ID>
Z109836774

>  <MW (desalted)>
335.443

>  <ClogP>
3.967

>  <HBD>
2

>  <TPSA>
48.130

>  <RotBonds>
7

>  <Target>
Poly [ADP-ribose] polymerase-1

>  <fromRegid>
CHEMBL356104

>  <Similarity>
0.87

$$$$
Compound 511
Actelion Java MolfileCreator 2.0

  0  0  0  0  0  0              0 V3000
M  V30 BEGIN CTAB
M  V30 COUNTS 25 27 0 0 0
M  V30 BEGIN ATOM
M  V30 1 O 0.0 0.0 0.0 0
M  V30 2 C -1.3065 0.7533 0.0 0
M  V30 3 N -1.3183 2.2599 0.0 0
M  V30 4 C -2.613 0.0235 0.0 0
M  V30 5 N -2.6248 3.0133 0.0 0
M  V30 6 C -3.9196 0.7768 0.0 0
M  V30 7 C -2.6248 -1.4595 0.0 0
M  V30 8 C -3.9314 2.2835 0.0 0
M  V30 9 C -5.2261 0.047 0.0 0
M  V30 10 C -3.9314 -2.2011 0.0 0
M  V30 11 C -5.2379 3.0368 0.0 0
M  V30 12 C -5.2379 -1.436 0.0 0
M  V30 13 O -5.8618 1.6832 0.0 0
M  V30 14 N -5.2497 4.5434 0.0 0
M  V30 15 C -6.5562 5.2968 0.0 0 CFG=2
M  V30 16 C -6.568 6.8034 0.0 0
M  V30 17 C -7.8628 4.567 0.0 0
M  V30 18 C -7.8746 7.5685 0.0 0
M  V30 19 C -5.285 7.5685 0.0 0
M  V30 20 N -7.8746 3.0839 0.0 0
M  V30 21 C -7.8863 9.0752 0.0 0
M  V30 22 C -5.2968 9.0752 0.0 0
M  V30 23 C -6.5915 2.3541 0.0 0
M  V30 24 C -9.1811 2.3541 0.0 0
M  V30 25 C -6.6033 9.8285 0.0 0
M  V30 END ATOM
M  V30 BEGIN BOND
M  V30 1 2 1 2
M  V30 2 1 2 3
M  V30 3 1 2 4
M  V30 4 1 3 5
M  V30 5 2 4 6
M  V30 6 1 4 7
M  V30 7 2 5 8
M  V30 8 1 6 9
M  V30 9 2 7 10
M  V30 10 1 8 11
M  V30 11 2 9 12
M  V30 12 2 11 13
M  V30 13 1 11 14
M  V30 14 1 15 14 CFG=1
M  V30 15 1 15 16
M  V30 16 1 15 17
M  V30 17 2 16 18
M  V30 18 1 16 19
M  V30 19 1 17 20
M  V30 20 1 18 21
M  V30 21 2 19 22
M  V30 22 1 20 23
M  V30 23 1 20 24
M  V30 24 2 21 25
M  V30 25 1 6 8
M  V30 26 1 10 12
M  V30 27 1 22 25
M  V30 END BOND
M  V30 BEGIN COLLECTION
M  V30 MDLV30/STERAC1 ATOMS=(1 15)
M  V30 END COLLECTION
M  V30 END CTAB
M  END
>  <Structure No>
511

>  <Catalog ID>
Z117592368

>  <MW (desalted)>
336.388

>  <ClogP>
1.247

>  <HBD>
2

>  <TPSA>
73.800

>  <RotBonds>
5

>  <Target>
parp2

>  <fromRegid>


>  <Similarity>


$$$$
Compound 512
Actelion Java MolfileCreator 2.0

  0  0  0  0  0  0              0 V3000
M  V30 BEGIN CTAB
M  V30 COUNTS 25 28 0 0 0
M  V30 BEGIN ATOM
M  V30 1 O 0.0 0.0 0.0 0
M  V30 2 C 1.2905 0.7695 0.0 0
M  V30 3 N 2.581 0.0236 0.0 0
M  V30 4 C 1.2787 2.285 0.0 0 CFG=1
M  V30 5 C 3.8716 0.7932 0.0 0
M  V30 6 O 2.5692 3.0546 0.0 0
M  V30 7 C -0.0355 3.0546 0.0 0
M  V30 8 C 3.8597 2.3087 0.0 0
M  V30 9 C 5.1621 0.0473 0.0 0
M  V30 10 C 5.1503 3.0783 0.0 0
M  V30 11 C 6.4527 0.8169 0.0 0
M  V30 12 C 6.4408 2.3324 0.0 0
M  V30 13 N 7.7432 0.071 0.0 0
M  V30 14 C 9.0337 0.8406 0.0 0
M  V30 15 O 9.0219 2.3561 0.0 0
M  V30 16 C 10.3243 0.0947 0.0 0
M  V30 17 C 11.6148 0.8643 0.0 0
M  V30 18 C 12.9764 0.2604 0.0 0
M  V30 19 C 11.7569 2.3679 0.0 0
M  V30 20 C 13.9709 1.3852 0.0 0
M  V30 21 C 13.4263 -1.1603 0.0 0
M  V30 22 N 13.2132 2.6876 0.0 0
M  V30 23 C 15.4272 1.0892 0.0 0
M  V30 24 C 14.8826 -1.4562 0.0 0
M  V30 25 C 15.8772 -0.3315 0.0 0
M  V30 END ATOM
M  V30 BEGIN BOND
M  V30 1 2 1 2
M  V30 2 1 2 3
M  V30 3 1 2 4
M  V30 4 1 3 5
M  V30 5 1 4 6
M  V30 6 1 4 7 CFG=3
M  V30 7 2 5 8
M  V30 8 1 5 9
M  V30 9 1 8 10
M  V30 10 2 9 11
M  V30 11 2 10 12
M  V30 12 1 11 13
M  V30 13 1 13 14
M  V30 14 2 14 15
M  V30 15 1 14 16
M  V30 16 1 16 17
M  V30 17 1 17 18
M  V30 18 2 17 19
M  V30 19 2 18 20
M  V30 20 1 18 21
M  V30 21 1 19 22
M  V30 22 1 20 23
M  V30 23 2 21 24
M  V30 24 2 23 25
M  V30 25 1 6 8
M  V30 26 1 11 12
M  V30 27 1 20 22
M  V30 28 1 24 25
M  V30 END BOND
M  V30 BEGIN COLLECTION
M  V30 MDLV30/STERAC1 ATOMS=(1 4)
M  V30 END COLLECTION
M  V30 END CTAB
M  END
>  <Structure No>
512

>  <Catalog ID>
Z110096110

>  <MW (desalted)>
335.357

>  <ClogP>
1.985

>  <HBD>
3

>  <TPSA>
83.220

>  <RotBonds>
3

>  <Target>
parp3

>  <fromRegid>


>  <Similarity>


$$$$
Compound 513
Actelion Java MolfileCreator 2.0

  0  0  0  0  0  0              0 V3000
M  V30 BEGIN CTAB
M  V30 COUNTS 25 28 0 0 0
M  V30 BEGIN ATOM
M  V30 1 O 0.0 0.0 0.0 0
M  V30 2 C -0.0117 1.5049 0.0 0
M  V30 3 N -1.3167 2.2573 0.0 0
M  V30 4 C 1.2697 2.2573 0.0 0
M  V30 5 C -1.3285 3.7622 0.0 0
M  V30 6 C 1.258 3.7622 0.0 0
M  V30 7 C 2.5512 1.5166 0.0 0
M  V30 8 C -2.6335 4.5147 0.0 0
M  V30 9 C -0.047 4.5147 0.0 0
M  V30 10 C 2.5395 4.5147 0.0 0
M  V30 11 C 3.8328 2.2691 0.0 0
M  V30 12 O -2.6453 6.0196 0.0 0
M  V30 13 N -3.9386 3.7857 0.0 0
M  V30 14 C 3.821 3.7857 0.0 0
M  V30 15 C -5.2436 4.5382 0.0 0
M  V30 16 C -5.2554 6.0431 0.0 0
M  V30 17 C -6.5487 3.8093 0.0 0
M  V30 18 C -6.5604 6.7956 0.0 0
M  V30 19 C -7.8537 4.5617 0.0 0
M  V30 20 C -6.5722 8.3005 0.0 0
M  V30 21 C -7.8655 6.0666 0.0 0
M  V30 22 N -5.3729 9.194 0.0 0
M  V30 23 C -7.7949 9.194 0.0 0
M  V30 24 N -5.8432 10.6284 0.0 0
M  V30 25 C -7.3481 10.6284 0.0 0
M  V30 END ATOM
M  V30 BEGIN BOND
M  V30 1 2 1 2
M  V30 2 1 2 3
M  V30 3 1 2 4
M  V30 4 1 3 5
M  V30 5 2 4 6
M  V30 6 1 4 7
M  V30 7 1 5 8
M  V30 8 2 5 9
M  V30 9 1 6 10
M  V30 10 2 7 11
M  V30 11 2 8 12
M  V30 12 1 8 13
M  V30 13 2 10 14
M  V30 14 1 13 15
M  V30 15 2 15 16
M  V30 16 1 15 17
M  V30 17 1 16 18
M  V30 18 2 17 19
M  V30 19 1 18 20
M  V30 20 2 18 21
M  V30 21 1 20 22
M  V30 22 2 20 23
M  V30 23 1 22 24
M  V30 24 1 23 25
M  V30 25 1 6 9
M  V30 26 1 11 14
M  V30 27 1 19 21
M  V30 28 2 24 25
M  V30 END BOND
M  V30 END CTAB
M  END
>  <Structure No>
513

>  <Catalog ID>
Z395890110

>  <MW (desalted)>
330.340

>  <ClogP>
2.156

>  <HBD>
3

>  <TPSA>
86.880

>  <RotBonds>
3

>  <Target>
parp15, Tankyrase1

>  <fromRegid>


>  <Similarity>


$$$$
Compound 514
Actelion Java MolfileCreator 2.0

  0  0  0  0  0  0              0 V3000
M  V30 BEGIN CTAB
M  V30 COUNTS 25 27 0 0 0
M  V30 BEGIN ATOM
M  V30 1 O 0.0 0.0 0.0 0
M  V30 2 N 0.7427 1.3086 0.0 0 CHG=1
M  V30 3 O 2.2281 1.3204 0.0 0 CHG=-1
M  V30 4 C -0.0235 2.6172 0.0 0
M  V30 5 C -1.5326 2.629 0.0 0
M  V30 6 C 0.7191 3.9258 0.0 0
M  V30 7 O -2.2989 1.3439 0.0 0
M  V30 8 C -2.2989 3.9376 0.0 0
M  V30 9 C -0.0471 5.2344 0.0 0
M  V30 10 C -1.5562 0.0589 0.0 0
M  V30 11 C -1.5562 5.2462 0.0 0
M  V30 12 C 0.6955 6.5431 0.0 0
M  V30 13 O -0.0707 7.8517 0.0 0
M  V30 14 N 2.181 6.5549 0.0 0
M  V30 15 C 2.9119 7.8635 0.0 0 CFG=2
M  V30 16 C 4.3974 7.8753 0.0 0
M  V30 17 C 2.1574 9.1721 0.0 0
M  V30 18 N 5.2698 9.1014 0.0 0
M  V30 19 N 5.2698 6.6728 0.0 0
M  V30 20 C 6.6845 8.6534 0.0 0
M  V30 21 C 6.6845 7.1443 0.0 0
M  V30 22 C 7.9696 9.4197 0.0 0
M  V30 23 C 7.9696 6.4016 0.0 0
M  V30 24 C 9.2546 8.6887 0.0 0
M  V30 25 C 9.2546 7.1679 0.0 0
M  V30 END ATOM
M  V30 BEGIN BOND
M  V30 1 2 1 2
M  V30 2 1 2 3
M  V30 3 1 2 4
M  V30 4 2 4 5
M  V30 5 1 4 6
M  V30 6 1 5 7
M  V30 7 1 5 8
M  V30 8 2 6 9
M  V30 9 1 7 10
M  V30 10 2 8 11
M  V30 11 1 9 12
M  V30 12 2 12 13
M  V30 13 1 12 14
M  V30 14 1 15 14 CFG=1
M  V30 15 1 15 16
M  V30 16 1 15 17
M  V30 17 2 16 18
M  V30 18 1 16 19
M  V30 19 1 18 20
M  V30 20 1 19 21
M  V30 21 1 20 22
M  V30 22 1 21 23
M  V30 23 2 22 24
M  V30 24 2 23 25
M  V30 25 1 9 11
M  V30 26 2 20 21
M  V30 27 1 24 25
M  V30 END BOND
M  V30 BEGIN COLLECTION
M  V30 MDLV30/STERAC1 ATOMS=(1 15)
M  V30 END COLLECTION
M  V30 END CTAB
M  END
>  <Structure No>
514

>  <Catalog ID>
Z88504748

>  <MW (desalted)>
340.333

>  <ClogP>
2.564

>  <HBD>
2

>  <TPSA>
110.150

>  <RotBonds>
5

>  <Target>
parp14

>  <fromRegid>


>  <Similarity>


$$$$
Compound 515
Actelion Java MolfileCreator 2.0

  0  0  0  0  0  0              0 V3000
M  V30 BEGIN CTAB
M  V30 COUNTS 25 28 0 0 0
M  V30 BEGIN ATOM
M  V30 1 O 0.0 0.0 0.0 0
M  V30 2 C 1.4941 0.0118 0.0 0
M  V30 3 N 2.2293 1.3281 0.0 0
M  V30 4 C 2.2293 -1.2806 0.0 0
M  V30 5 C 3.7234 1.3399 0.0 0
M  V30 6 C 3.7234 -1.2688 0.0 0
M  V30 7 C 1.4704 -2.5732 0.0 0
M  V30 8 C 4.4586 2.6562 0.0 0
M  V30 9 C 4.4586 0.0474 0.0 0
M  V30 10 C 4.4586 -2.5613 0.0 0
M  V30 11 C 2.2056 -3.8657 0.0 0
M  V30 12 O 3.6997 3.9724 0.0 0
M  V30 13 N 5.9528 2.668 0.0 0
M  V30 14 C 3.6997 -3.8539 0.0 0
M  V30 15 C 6.6998 3.9843 0.0 0 CFG=2
M  V30 16 C 8.194 3.9962 0.0 0
M  V30 17 C 5.929 5.3006 0.0 0
M  V30 18 N 9.0715 5.2294 0.0 0
M  V30 19 N 9.0715 2.7866 0.0 0
M  V30 20 C 10.4944 4.7788 0.0 0
M  V30 21 C 10.4944 3.261 0.0 0
M  V30 22 C 11.787 5.5377 0.0 0
M  V30 23 C 11.787 2.5257 0.0 0
M  V30 24 C 13.0795 4.8025 0.0 0
M  V30 25 C 13.0795 3.2847 0.0 0
M  V30 END ATOM
M  V30 BEGIN BOND
M  V30 1 2 1 2
M  V30 2 1 2 3
M  V30 3 1 2 4
M  V30 4 1 3 5
M  V30 5 2 4 6
M  V30 6 1 4 7
M  V30 7 1 5 8
M  V30 8 2 5 9
M  V30 9 1 6 10
M  V30 10 2 7 11
M  V30 11 2 8 12
M  V30 12 1 8 13
M  V30 13 2 10 14
M  V30 14 1 15 13 CFG=1
M  V30 15 1 15 16
M  V30 16 1 15 17
M  V30 17 2 16 18
M  V30 18 1 16 19
M  V30 19 1 18 20
M  V30 20 1 19 21
M  V30 21 1 20 22
M  V30 22 1 21 23
M  V30 23 2 22 24
M  V30 24 2 23 25
M  V30 25 1 6 9
M  V30 26 1 11 14
M  V30 27 2 20 21
M  V30 28 1 24 25
M  V30 END BOND
M  V30 BEGIN COLLECTION
M  V30 MDLV30/STERAC1 ATOMS=(1 15)
M  V30 END COLLECTION
M  V30 END CTAB
M  END
>  <Structure No>
515

>  <Catalog ID>
Z298373262

>  <MW (desalted)>
332.356

>  <ClogP>
1.815

>  <HBD>
3

>  <TPSA>
86.880

>  <RotBonds>
3

>  <Target>
parp15, parp3

>  <fromRegid>


>  <Similarity>


$$$$
Compound 516
Actelion Java MolfileCreator 2.0

  0  0  0  0  0  0              0 V3000
M  V30 BEGIN CTAB
M  V30 COUNTS 25 27 0 0 0
M  V30 BEGIN ATOM
M  V30 1 S 0.0 0.0 0.0 0
M  V30 2 O -0.7609 -1.2959 0.0 0
M  V30 3 O 0.7371 1.3196 0.0 0
M  V30 4 N -1.3196 0.7609 0.0 0
M  V30 5 C 1.2959 -0.7371 0.0 0
M  V30 6 C 2.5918 0.0237 0.0 0
M  V30 7 C 1.284 -2.2351 0.0 0
M  V30 8 C 3.8877 -0.7133 0.0 0
M  V30 9 C 2.5799 -2.9841 0.0 0
M  V30 10 C 3.8758 -2.2113 0.0 0
M  V30 11 C 5.1717 -2.9603 0.0 0
M  V30 12 C 6.4676 -2.1994 0.0 0
M  V30 13 N 7.7635 -2.9484 0.0 0
M  V30 14 C 9.0594 -2.1875 0.0 0
M  V30 15 O 9.0475 -0.6657 0.0 0
M  V30 16 C 10.3553 -2.9366 0.0 0
M  V30 17 C 10.3434 -4.4346 0.0 0
M  V30 18 C 11.6512 -2.1757 0.0 0
M  V30 19 C 11.6394 -5.1717 0.0 0
M  V30 20 C 12.9471 -2.9247 0.0 0
M  V30 21 N 11.6275 -6.6697 0.0 0
M  V30 22 C 12.9353 -4.4108 0.0 0
M  V30 23 C 12.9234 -7.4068 0.0 0
M  V30 24 N 14.2312 -5.1479 0.0 0
M  V30 25 C 14.2193 -6.6459 0.0 0
M  V30 END ATOM
M  V30 BEGIN BOND
M  V30 1 2 1 2
M  V30 2 2 1 3
M  V30 3 1 1 4
M  V30 4 1 1 5
M  V30 5 2 5 6
M  V30 6 1 5 7
M  V30 7 1 6 8
M  V30 8 2 7 9
M  V30 9 2 8 10
M  V30 10 1 10 11
M  V30 11 1 11 12
M  V30 12 1 12 13
M  V30 13 1 13 14
M  V30 14 2 14 15
M  V30 15 1 14 16
M  V30 16 2 16 17
M  V30 17 1 16 18
M  V30 18 1 17 19
M  V30 19 2 18 20
M  V30 20 2 19 21
M  V30 21 1 19 22
M  V30 22 1 21 23
M  V30 23 2 22 24
M  V30 24 2 23 25
M  V30 25 1 9 10
M  V30 26 1 20 22
M  V30 27 1 24 25
M  V30 END BOND
M  V30 END CTAB
M  END
>  <Structure No>
516

>  <Catalog ID>
Z30857069

>  <MW (desalted)>
356.399

>  <ClogP>
0.950

>  <HBD>
2

>  <TPSA>
115.040

>  <RotBonds>
5

>  <Target>
CHK2

>  <fromRegid>


>  <Similarity>


$$$$
Compound 517
Actelion Java MolfileCreator 2.0

  0  0  0  0  0  0              0 V3000
M  V30 BEGIN CTAB
M  V30 COUNTS 25 28 0 0 0
M  V30 BEGIN ATOM
M  V30 1 O 0.0 0.0 0.0 0
M  V30 2 C -1.4762 0.3188 0.0 0
M  V30 3 N -2.4918 -0.7794 0.0 0
M  V30 4 C -1.9485 1.7596 0.0 0
M  V30 5 C -3.968 -0.4605 0.0 0
M  V30 6 C -3.4248 2.0785 0.0 0
M  V30 7 C -0.9565 2.8815 0.0 0
M  V30 8 C -4.9836 -1.5588 0.0 0
M  V30 9 C -4.4404 0.9802 0.0 0
M  V30 10 C -3.8971 3.5192 0.0 0
M  V30 11 C -1.4289 4.3223 0.0 0
M  V30 12 O -6.4598 -1.24 0.0 0
M  V30 13 N -4.5349 -2.976 0.0 0
M  V30 14 C -2.9051 4.6412 0.0 0
M  V30 15 C -3.1177 -3.4248 0.0 0
M  V30 16 C -5.4324 -4.1806 0.0 0
M  V30 17 C -3.1295 -4.9128 0.0 0
M  V30 18 C -1.8305 -2.6571 0.0 0
M  V30 19 C -4.5585 -5.3852 0.0 0 CFG=2
M  V30 20 C -1.8423 -5.6568 0.0 0
M  V30 21 C -0.5432 -3.4011 0.0 0
M  V30 22 C -5.0309 -6.8023 0.0 0
M  V30 23 C -0.555 -4.901 0.0 0
M  V30 24 O -6.5071 -7.0976 0.0 0
M  V30 25 O -4.0389 -7.9006 0.0 0
M  V30 END ATOM
M  V30 BEGIN BOND
M  V30 1 2 1 2
M  V30 2 1 2 3
M  V30 3 1 2 4
M  V30 4 1 3 5
M  V30 5 2 4 6
M  V30 6 1 4 7
M  V30 7 1 5 8
M  V30 8 2 5 9
M  V30 9 1 6 10
M  V30 10 2 7 11
M  V30 11 2 8 12
M  V30 12 1 8 13
M  V30 13 2 10 14
M  V30 14 1 13 15
M  V30 15 1 13 16
M  V30 16 2 15 17
M  V30 17 1 15 18
M  V30 18 1 16 19
M  V30 19 1 17 20
M  V30 20 2 18 21
M  V30 21 1 19 22 CFG=3
M  V30 22 2 20 23
M  V30 23 2 22 24
M  V30 24 1 22 25
M  V30 25 1 6 9
M  V30 26 1 11 14
M  V30 27 1 17 19
M  V30 28 1 21 23
M  V30 END BOND
M  V30 BEGIN COLLECTION
M  V30 MDLV30/STERAC1 ATOMS=(1 19)
M  V30 END COLLECTION
M  V30 END CTAB
M  END
>  <Structure No>
517

>  <Catalog ID>
Z1413700738

>  <MW (desalted)>
334.325

>  <ClogP>
1.034

>  <HBD>
2

>  <TPSA>
86.710

>  <RotBonds>
2

>  <Target>
CHK1

>  <fromRegid>


>  <Similarity>


$$$$
Compound 518
Actelion Java MolfileCreator 2.0

  0  0  0  0  0  0              0 V3000
M  V30 BEGIN CTAB
M  V30 COUNTS 26 27 0 0 0
M  V30 BEGIN ATOM
M  V30 1 Cl 0.0 0.0 0.0 0
M  V30 2 O 10.6594 -1.0376 0.0 0
M  V30 3 C 10.6476 0.4716 0.0 0
M  V30 4 N 11.9329 1.2381 0.0 0
M  V30 5 C 9.3388 1.2381 0.0 0
M  V30 6 C 13.2182 0.4952 0.0 0
M  V30 7 C 11.9211 2.7474 0.0 0
M  V30 8 C 9.327 2.7474 0.0 0
M  V30 9 C 8.0299 0.4952 0.0 0
M  V30 10 C 14.5034 1.2616 0.0 0
M  V30 11 C 13.2064 3.5138 0.0 0
M  V30 12 C 8.0181 3.5138 0.0 0
M  V30 13 C 6.7211 1.2616 0.0 0
M  V30 14 C 14.4916 2.7709 0.0 0
M  V30 15 C 15.7887 0.5188 0.0 0
M  V30 16 C 6.7093 2.7709 0.0 0
M  V30 17 N 15.7769 -0.9668 0.0 0
M  V30 18 C 5.4004 3.5374 0.0 0
M  V30 19 C 17.0622 -1.7097 0.0 0
M  V30 20 C 4.0916 2.7945 0.0 0
M  V30 21 O 18.3474 -0.9433 0.0 0
M  V30 22 C 17.0504 -3.1954 0.0 0
M  V30 23 N 15.8241 -4.068 0.0 0
M  V30 24 C 18.2531 -4.068 0.0 0
M  V30 25 C 16.2721 -5.483 0.0 0
M  V30 26 C 17.7814 -5.483 0.0 0
M  V30 END ATOM
M  V30 BEGIN BOND
M  V30 1 2 2 3
M  V30 2 1 3 4
M  V30 3 1 3 5
M  V30 4 1 4 6
M  V30 5 1 4 7
M  V30 6 2 5 8
M  V30 7 1 5 9
M  V30 8 1 6 10
M  V30 9 1 7 11
M  V30 10 1 8 12
M  V30 11 2 9 13
M  V30 12 1 10 14
M  V30 13 1 10 15
M  V30 14 2 12 16
M  V30 15 1 15 17
M  V30 16 1 16 18
M  V30 17 1 17 19
M  V30 18 1 18 20
M  V30 19 2 19 21
M  V30 20 1 19 22
M  V30 21 1 22 23
M  V30 22 1 22 24
M  V30 23 1 23 25
M  V30 24 1 24 26
M  V30 25 1 11 14
M  V30 26 1 13 16
M  V30 27 1 25 26
M  V30 END BOND
M  V30 END CTAB
M  END
>  <Structure No>
518

>  <Catalog ID>
Z1508613390

>  <MW (desalted)>
343.463

>  <ClogP>
1.533

>  <HBD>
2

>  <TPSA>
61.440

>  <RotBonds>
5

>  <Target>
CHK2

>  <fromRegid>


>  <Similarity>


$$$$
Compound 519
Actelion Java MolfileCreator 2.0

  0  0  0  0  0  0              0 V3000
M  V30 BEGIN CTAB
M  V30 COUNTS 25 28 0 0 0
M  V30 BEGIN ATOM
M  V30 1 O 0.0 0.0 0.0 0
M  V30 2 C -1.3112 -0.7323 0.0 0
M  V30 3 N -2.6224 0.0236 0.0 0
M  V30 4 C -1.323 -2.2208 0.0 0
M  V30 5 C -2.6342 1.5356 0.0 0
M  V30 6 C -0.0354 -2.9532 0.0 0
M  V30 7 C -2.6342 -2.9532 0.0 0
M  V30 8 C -3.9454 2.2916 0.0 0
M  V30 9 C -0.0472 -4.4416 0.0 0
M  V30 10 C 1.2521 -2.1971 0.0 0
M  V30 11 C -2.646 -4.4416 0.0 0
M  V30 12 C -3.9573 3.8037 0.0 0
M  V30 13 N -1.3584 -5.1858 0.0 0
M  V30 14 C 1.2403 -5.1858 0.0 0
M  V30 15 C 2.5397 -2.9295 0.0 0
M  V30 16 O -3.9573 -5.1858 0.0 0
M  V30 17 C -2.7523 4.7015 0.0 0
M  V30 18 C -5.1858 4.7015 0.0 0
M  V30 19 C 2.5279 -4.4298 0.0 0
M  V30 20 C -3.2249 6.1426 0.0 0
M  V30 21 C -1.2994 4.4061 0.0 0
M  V30 22 N -4.7369 6.1426 0.0 0
M  V30 23 C -2.2326 7.2649 0.0 0
M  V30 24 C -0.3071 5.5284 0.0 0
M  V30 25 C -0.7796 6.9695 0.0 0
M  V30 END ATOM
M  V30 BEGIN BOND
M  V30 1 2 1 2
M  V30 2 1 2 3
M  V30 3 1 2 4
M  V30 4 1 3 5
M  V30 5 1 4 6
M  V30 6 2 4 7
M  V30 7 1 5 8
M  V30 8 1 6 9
M  V30 9 2 6 10
M  V30 10 1 7 11
M  V30 11 1 8 12
M  V30 12 1 9 13
M  V30 13 2 9 14
M  V30 14 1 10 15
M  V30 15 1 11 16
M  V30 16 1 12 17
M  V30 17 2 12 18
M  V30 18 1 14 19
M  V30 19 2 17 20
M  V30 20 1 17 21
M  V30 21 1 18 22
M  V30 22 1 20 23
M  V30 23 2 21 24
M  V30 24 2 23 25
M  V30 25 2 11 13
M  V30 26 2 15 19
M  V30 27 1 20 22
M  V30 28 1 24 25
M  V30 END BOND
M  V30 END CTAB
M  END
>  <Structure No>
519

>  <Catalog ID>
Z26395724

>  <MW (desalted)>
331.368

>  <ClogP>
3.918

>  <HBD>
3

>  <TPSA>
78.010

>  <RotBonds>
4

>  <Target>
Poly [ADP-ribose] polymerase-1

>  <fromRegid>
CHEMBL343022

>  <Similarity>
0.87

$$$$
Compound 520
Actelion Java MolfileCreator 2.0

  0  0  0  0  0  0              0 V3000
M  V30 BEGIN CTAB
M  V30 COUNTS 25 27 0 0 0
M  V30 BEGIN ATOM
M  V30 1 O 0.0 0.0 0.0 0
M  V30 2 C -0.0118 -1.4912 0.0 0
M  V30 3 N 1.2781 -2.2249 0.0 0
M  V30 4 C -1.3255 -2.2249 0.0 0
M  V30 5 C 2.5682 -1.4675 0.0 0
M  V30 6 C -2.6392 -1.4675 0.0 0
M  V30 7 C -1.3373 -3.7162 0.0 0
M  V30 8 C 3.8582 -2.2013 0.0 0
M  V30 9 C -3.9529 -2.2013 0.0 0
M  V30 10 C -2.651 -4.4618 0.0 0
M  V30 11 C 5.1482 -1.4438 0.0 0
M  V30 12 C -3.9647 -3.6925 0.0 0
M  V30 13 C 6.5092 -2.0474 0.0 0
M  V30 14 C 5.2902 0.0591 0.0 0
M  V30 15 C -5.2784 -4.4381 0.0 0
M  V30 16 C 7.5034 -0.9231 0.0 0
M  V30 17 C 6.959 -3.4676 0.0 0
M  V30 18 N 6.7459 0.3787 0.0 0
M  V30 19 N -6.5921 -3.6688 0.0 0
M  V30 20 C 8.9591 -1.219 0.0 0
M  V30 21 C 8.4147 -3.7635 0.0 0
M  V30 22 C -6.6039 -2.1539 0.0 0
M  V30 23 C 9.4088 -2.6392 0.0 0
M  V30 24 O -5.3139 -1.3965 0.0 0
M  V30 25 C -7.9176 -1.3965 0.0 0
M  V30 END ATOM
M  V30 BEGIN BOND
M  V30 1 2 1 2
M  V30 2 1 2 3
M  V30 3 1 2 4
M  V30 4 1 3 5
M  V30 5 2 4 6
M  V30 6 1 4 7
M  V30 7 1 5 8
M  V30 8 1 6 9
M  V30 9 2 7 10
M  V30 10 1 8 11
M  V30 11 2 9 12
M  V30 12 1 11 13
M  V30 13 2 11 14
M  V30 14 1 12 15
M  V30 15 2 13 16
M  V30 16 1 13 17
M  V30 17 1 14 18
M  V30 18 1 15 19
M  V30 19 1 16 20
M  V30 20 2 17 21
M  V30 21 1 19 22
M  V30 22 2 20 23
M  V30 23 2 22 24
M  V30 24 1 22 25
M  V30 25 1 10 12
M  V30 26 1 16 18
M  V30 27 1 21 23
M  V30 END BOND
M  V30 END CTAB
M  END
>  <Structure No>
520

>  <Catalog ID>
Z87552893

>  <MW (desalted)>
335.400

>  <ClogP>
1.756

>  <HBD>
3

>  <TPSA>
73.990

>  <RotBonds>
6

>  <Target>
Poly [ADP-ribose] polymerase-1

>  <fromRegid>
CHEMBL551001

>  <Similarity>
0.86

$$$$
Compound 521
Actelion Java MolfileCreator 2.0

  0  0  0  0  0  0              0 V3000
M  V30 BEGIN CTAB
M  V30 COUNTS 25 27 0 0 0
M  V30 BEGIN ATOM
M  V30 1 O 0.0 0.0 0.0 0
M  V30 2 C -0.0118 1.5159 0.0 0
M  V30 3 N 1.2791 2.2739 0.0 0
M  V30 4 N -1.3264 2.2739 0.0 0
M  V30 5 C 1.2672 3.7899 0.0 0
M  V30 6 C 2.57 1.5396 0.0 0
M  V30 7 C -1.3383 3.7899 0.0 0
M  V30 8 C -0.0473 4.5479 0.0 0
M  V30 9 C 2.5582 4.5479 0.0 0
M  V30 10 C 3.861 2.2976 0.0 0
M  V30 11 O -2.6529 4.5479 0.0 0
M  V30 12 C -0.0592 6.0639 0.0 0
M  V30 13 C 2.5463 6.0639 0.0 0
M  V30 14 C 5.152 1.5633 0.0 0
M  V30 15 C 1.2317 6.8219 0.0 0
M  V30 16 O 5.1401 0.071 0.0 0
M  V30 17 N 6.4429 2.3213 0.0 0
M  V30 18 C 7.7339 1.587 0.0 0
M  V30 19 C 9.0248 2.345 0.0 0
M  V30 20 C 7.722 0.0947 0.0 0
M  V30 21 C 10.3158 1.6107 0.0 0
M  V30 22 C 9.013 -0.6395 0.0 0
M  V30 23 C 10.304 0.1184 0.0 0
M  V30 24 C 11.5949 -0.6158 0.0 0
M  V30 25 N 12.8859 -1.3501 0.0 0
M  V30 END ATOM
M  V30 BEGIN BOND
M  V30 1 2 1 2
M  V30 2 1 2 3
M  V30 3 1 2 4
M  V30 4 1 3 5
M  V30 5 1 3 6
M  V30 6 1 4 7
M  V30 7 2 5 8
M  V30 8 1 5 9
M  V30 9 1 6 10
M  V30 10 2 7 11
M  V30 11 1 8 12
M  V30 12 2 9 13
M  V30 13 1 10 14
M  V30 14 2 12 15
M  V30 15 2 14 16
M  V30 16 1 14 17
M  V30 17 1 17 18
M  V30 18 2 18 19
M  V30 19 1 18 20
M  V30 20 1 19 21
M  V30 21 2 20 22
M  V30 22 2 21 23
M  V30 23 1 23 24
M  V30 24 3 24 25
M  V30 25 1 7 8
M  V30 26 1 13 15
M  V30 27 1 22 23
M  V30 END BOND
M  V30 END CTAB
M  END
>  <Structure No>
521

>  <Catalog ID>
Z195196156

>  <MW (desalted)>
334.329

>  <ClogP>
1.881

>  <HBD>
2

>  <TPSA>
102.300

>  <RotBonds>
4

>  <Target>
Poly [ADP-ribose] polymerase-1

>  <fromRegid>
CHEMBL3105417

>  <Similarity>
0.94

$$$$
Compound 522
Actelion Java MolfileCreator 2.0

  0  0  0  0  0  0              0 V3000
M  V30 BEGIN CTAB
M  V30 COUNTS 25 28 0 0 0
M  V30 BEGIN ATOM
M  V30 1 O 0.0 0.0 0.0 0
M  V30 2 C -0.0117 1.5088 0.0 0
M  V30 3 N -1.3202 2.2633 0.0 0
M  V30 4 C 1.2731 2.2633 0.0 0
M  V30 5 C -1.332 3.7722 0.0 0
M  V30 6 C 1.2613 3.7722 0.0 0
M  V30 7 C 2.558 1.5206 0.0 0
M  V30 8 N -0.0471 4.5266 0.0 0
M  V30 9 C -2.6405 4.5266 0.0 0
M  V30 10 C 2.5462 4.5266 0.0 0
M  V30 11 C 3.8429 2.2751 0.0 0
M  V30 12 N -2.6523 6.0355 0.0 0
M  V30 13 C 3.8311 3.7957 0.0 0
M  V30 14 C -3.9608 6.7899 0.0 0
M  V30 15 C -1.3674 6.7899 0.0 0
M  V30 16 C -3.9726 8.2988 0.0 0
M  V30 17 C -1.3792 8.2988 0.0 0
M  V30 18 C -2.6877 9.0533 0.0 0
M  V30 19 C -2.6994 10.5621 0.0 0
M  V30 20 C -1.4145 11.3284 0.0 0
M  V30 21 C -1.4263 12.8373 0.0 0
M  V30 22 C -0.1296 10.5857 0.0 0
M  V30 23 C -0.1414 13.5917 0.0 0
M  V30 24 C 1.1552 11.352 0.0 0
M  V30 25 C 1.1434 12.8608 0.0 0
M  V30 END ATOM
M  V30 BEGIN BOND
M  V30 1 2 1 2
M  V30 2 1 2 3
M  V30 3 1 2 4
M  V30 4 1 3 5
M  V30 5 2 4 6
M  V30 6 1 4 7
M  V30 7 2 5 8
M  V30 8 1 5 9
M  V30 9 1 6 10
M  V30 10 2 7 11
M  V30 11 1 9 12
M  V30 12 2 10 13
M  V30 13 1 12 14
M  V30 14 1 12 15
M  V30 15 1 14 16
M  V30 16 1 15 17
M  V30 17 1 16 18
M  V30 18 1 18 19
M  V30 19 1 19 20
M  V30 20 2 20 21
M  V30 21 1 20 22
M  V30 22 1 21 23
M  V30 23 2 22 24
M  V30 24 2 23 25
M  V30 25 1 6 8
M  V30 26 1 11 13
M  V30 27 1 17 18
M  V30 28 1 24 25
M  V30 END BOND
M  V30 END CTAB
M  END
>  <Structure No>
522

>  <Catalog ID>
Z44502425

>  <MW (desalted)>
333.427

>  <ClogP>
3.269

>  <HBD>
1

>  <TPSA>
44.700

>  <RotBonds>
4

>  <Target>
Poly [ADP-ribose] polymerase-1

>  <fromRegid>
CHEMBL249813

>  <Similarity>
0.86

$$$$
Compound 523
Actelion Java MolfileCreator 2.0

  0  0  0  0  0  0              0 V3000
M  V30 BEGIN CTAB
M  V30 COUNTS 25 28 0 0 0
M  V30 BEGIN ATOM
M  V30 1 Cl 0.0 0.0 0.0 0
M  V30 2 C 1.2926 0.7589 0.0 0
M  V30 3 C 2.5852 0.0118 0.0 0
M  V30 4 C 1.2807 2.2768 0.0 0
M  V30 5 C 3.8778 0.7708 0.0 0
M  V30 6 C 2.5733 3.0358 0.0 0
M  V30 7 N 5.1704 0.0237 0.0 0
M  V30 8 C 3.8659 2.2887 0.0 0
M  V30 9 C 6.463 0.7826 0.0 0
M  V30 10 C 5.1585 3.0477 0.0 0
M  V30 11 N 6.4512 2.3006 0.0 0
M  V30 12 C 7.7556 0.0355 0.0 0
M  V30 13 O 5.1467 4.5656 0.0 0
M  V30 14 N 7.7438 -1.4586 0.0 0
M  V30 15 C 9.0364 -2.2057 0.0 0
M  V30 16 C 6.4274 -2.2057 0.0 0
M  V30 17 C 9.0245 -3.6999 0.0 0
M  V30 18 C 6.4156 -3.6999 0.0 0
M  V30 19 N 7.7082 -4.4352 0.0 0
M  V30 20 C 7.6963 -5.9294 0.0 0
M  V30 21 C 8.9889 -6.6765 0.0 0
M  V30 22 C 6.38 -6.6765 0.0 0
M  V30 23 C 8.9771 -8.1707 0.0 0
M  V30 24 C 6.3681 -8.1707 0.0 0
M  V30 25 C 7.6608 -8.9059 0.0 0
M  V30 END ATOM
M  V30 BEGIN BOND
M  V30 1 1 1 2
M  V30 2 2 2 3
M  V30 3 1 2 4
M  V30 4 1 3 5
M  V30 5 2 4 6
M  V30 6 1 5 7
M  V30 7 2 5 8
M  V30 8 2 7 9
M  V30 9 1 8 10
M  V30 10 1 9 11
M  V30 11 1 9 12
M  V30 12 2 10 13
M  V30 13 1 12 14
M  V30 14 1 14 15
M  V30 15 1 14 16
M  V30 16 1 15 17
M  V30 17 1 16 18
M  V30 18 1 17 19
M  V30 19 1 19 20
M  V30 20 2 20 21
M  V30 21 1 20 22
M  V30 22 1 21 23
M  V30 23 2 22 24
M  V30 24 2 23 25
M  V30 25 1 6 8
M  V30 26 1 10 11
M  V30 27 1 18 19
M  V30 28 1 24 25
M  V30 END BOND
M  V30 END CTAB
M  END
>  <Structure No>
523

>  <Catalog ID>
Z44494586

>  <MW (desalted)>
354.833

>  <ClogP>
2.815

>  <HBD>
1

>  <TPSA>
47.940

>  <RotBonds>
3

>  <Target>
Poly [ADP-ribose] polymerase-1

>  <fromRegid>
CHEMBL2377259

>  <Similarity>
0.87

$$$$
Compound 524
Actelion Java MolfileCreator 2.0

  0  0  0  0  0  0              0 V3000
M  V30 BEGIN CTAB
M  V30 COUNTS 23 25 0 0 0
M  V30 BEGIN ATOM
M  V30 1 F 0.0 0.0 0.0 0
M  V30 2 C -0.3176 1.4707 0.0 0
M  V30 3 C 0.7765 2.4826 0.0 0
M  V30 4 C -1.7531 1.9414 0.0 0
M  V30 5 C 0.4588 3.9534 0.0 0
M  V30 6 C -2.0708 3.4122 0.0 0
M  V30 7 C -0.9766 4.4241 0.0 0
M  V30 8 C -1.2942 5.8949 0.0 0
M  V30 9 N -0.3059 7.0127 0.0 0
M  V30 10 C -2.6709 6.5185 0.0 0
M  V30 11 N -1.0589 8.3187 0.0 0
M  V30 12 C -3.977 5.7772 0.0 0
M  V30 13 C -2.5297 8.0128 0.0 0
M  V30 14 O -3.9887 4.2946 0.0 0
M  V30 15 N -5.283 6.5302 0.0 0
M  V30 16 C -6.5891 5.789 0.0 0 CFG=2
M  V30 17 C -7.8951 6.542 0.0 0
M  V30 18 C -6.6008 4.3064 0.0 0
M  V30 19 N -9.2012 5.8007 0.0 0
M  V30 20 C -10.5778 6.4243 0.0 0
M  V30 21 C -9.3659 4.3299 0.0 0
M  V30 22 N -11.5897 5.3301 0.0 0
M  V30 23 C -10.8367 4.0358 0.0 0
M  V30 END ATOM
M  V30 BEGIN BOND
M  V30 1 1 1 2
M  V30 2 2 2 3
M  V30 3 1 2 4
M  V30 4 1 3 5
M  V30 5 2 4 6
M  V30 6 2 5 7
M  V30 7 1 7 8
M  V30 8 2 8 9
M  V30 9 1 8 10
M  V30 10 1 9 11
M  V30 11 1 10 12
M  V30 12 2 10 13
M  V30 13 2 12 14
M  V30 14 1 12 15
M  V30 15 1 16 15 CFG=1
M  V30 16 1 16 17
M  V30 17 1 16 18
M  V30 18 1 17 19
M  V30 19 1 19 20
M  V30 20 1 19 21
M  V30 21 2 20 22
M  V30 22 2 21 23
M  V30 23 1 6 7
M  V30 24 1 11 13
M  V30 25 1 22 23
M  V30 END BOND
M  V30 BEGIN COLLECTION
M  V30 MDLV30/STERAC1 ATOMS=(1 16)
M  V30 END COLLECTION
M  V30 END CTAB
M  END
>  <Structure No>
524

>  <Catalog ID>
Z647978072

>  <MW (desalted)>
313.330

>  <ClogP>
1.898

>  <HBD>
2

>  <TPSA>
75.600

>  <RotBonds>
5

>  <Target>
CHK1

>  <fromRegid>


>  <Similarity>


$$$$
Compound 525
Actelion Java MolfileCreator 2.0

  0  0  0  0  0  0              0 V3000
M  V30 BEGIN CTAB
M  V30 COUNTS 22 24 0 0 0
M  V30 BEGIN ATOM
M  V30 1 O 0.0 0.0 0.0 0
M  V30 2 C 1.2942 -0.748 0.0 0
M  V30 3 N 2.5884 0.0237 0.0 0
M  V30 4 C 1.2823 -2.2441 0.0 0
M  V30 5 C 3.8827 -0.7242 0.0 0
M  V30 6 C 2.5765 -2.9802 0.0 0
M  V30 7 C -0.0356 -2.9802 0.0 0
M  V30 8 N 3.8708 -2.2203 0.0 0
M  V30 9 C 5.1769 0.0474 0.0 0
M  V30 10 C 2.5647 -4.4763 0.0 0
M  V30 11 C -0.0474 -4.4763 0.0 0
M  V30 12 C 6.4711 -0.7005 0.0 0
M  V30 13 C 1.2467 -5.2244 0.0 0
M  V30 14 C 7.7654 0.0712 0.0 0
M  V30 15 O 7.7535 1.591 0.0 0
M  V30 16 N 9.0596 -0.6768 0.0 0
M  V30 17 C 10.3538 0.0949 0.0 0
M  V30 18 C 11.6481 -0.653 0.0 0 CFG=2
M  V30 19 C 11.7905 -2.1372 0.0 0
M  V30 20 C 13.0135 -0.0237 0.0 0
M  V30 21 O 13.251 -2.4341 0.0 0
M  V30 22 C 14.0109 -1.128 0.0 0
M  V30 END ATOM
M  V30 BEGIN BOND
M  V30 1 2 1 2
M  V30 2 1 2 3
M  V30 3 1 2 4
M  V30 4 1 3 5
M  V30 5 2 4 6
M  V30 6 1 4 7
M  V30 7 2 5 8
M  V30 8 1 5 9
M  V30 9 1 6 10
M  V30 10 2 7 11
M  V30 11 1 9 12
M  V30 12 2 10 13
M  V30 13 1 12 14
M  V30 14 2 14 15
M  V30 15 1 14 16
M  V30 16 1 16 17
M  V30 17 1 18 17 CFG=1
M  V30 18 1 18 19
M  V30 19 1 18 20
M  V30 20 1 19 21
M  V30 21 1 20 22
M  V30 22 1 6 8
M  V30 23 1 11 13
M  V30 24 1 21 22
M  V30 END BOND
M  V30 BEGIN COLLECTION
M  V30 MDLV30/STERAC1 ATOMS=(1 18)
M  V30 END COLLECTION
M  V30 END CTAB
M  END
>  <Structure No>
525

>  <Catalog ID>
Z384364426

>  <MW (desalted)>
301.340

>  <ClogP>
-0.996

>  <HBD>
2

>  <TPSA>
79.790

>  <RotBonds>
5

>  <Target>
parp3

>  <fromRegid>


>  <Similarity>


$$$$
Compound 526
Actelion Java MolfileCreator 2.0

  0  0  0  0  0  0              0 V3000
M  V30 BEGIN CTAB
M  V30 COUNTS 24 26 0 0 0
M  V30 BEGIN ATOM
M  V30 1 S 0.0 0.0 0.0 0
M  V30 2 C -1.4455 -0.4502 0.0 0
M  V30 3 C 1.1019 -0.9952 0.0 0
M  V30 4 N -1.9195 -1.8721 0.0 0
M  V30 5 N -2.6778 0.4502 0.0 0
M  V30 6 C 2.5237 -0.5213 0.0 0
M  V30 7 N -3.4361 -1.8602 0.0 0
M  V30 8 C -3.91 -0.4265 0.0 0
M  V30 9 C -2.6896 1.9668 0.0 0
M  V30 10 C 3.6257 -1.5166 0.0 0
M  V30 11 C 2.82 0.9597 0.0 0
M  V30 12 O -5.3556 0.0473 0.0 0
M  V30 13 C 5.0475 -1.0426 0.0 0
M  V30 14 C 4.2418 1.4337 0.0 0
M  V30 15 C 6.1495 -2.0379 0.0 0
M  V30 16 C 5.3437 0.4384 0.0 0
M  V30 17 O 5.8295 -3.4953 0.0 0
M  V30 18 N 7.5713 -1.564 0.0 0
M  V30 19 C 8.6733 -2.5593 0.0 0
M  V30 20 C 10.0951 -2.0853 0.0 0
M  V30 21 C 8.3533 -4.0167 0.0 0
M  V30 22 C 11.197 -3.0806 0.0 0
M  V30 23 C 9.4553 -5.012 0.0 0
M  V30 24 C 10.8771 -4.538 0.0 0
M  V30 END ATOM
M  V30 BEGIN BOND
M  V30 1 1 1 2
M  V30 2 1 1 3
M  V30 3 2 2 4
M  V30 4 1 2 5
M  V30 5 1 3 6
M  V30 6 1 4 7
M  V30 7 1 5 8
M  V30 8 1 5 9
M  V30 9 2 6 10
M  V30 10 1 6 11
M  V30 11 2 8 12
M  V30 12 1 10 13
M  V30 13 2 11 14
M  V30 14 1 13 15
M  V30 15 2 13 16
M  V30 16 2 15 17
M  V30 17 1 15 18
M  V30 18 1 18 19
M  V30 19 2 19 20
M  V30 20 1 19 21
M  V30 21 1 20 22
M  V30 22 2 21 23
M  V30 23 2 22 24
M  V30 24 1 7 8
M  V30 25 1 14 16
M  V30 26 1 23 24
M  V30 END BOND
M  V30 END CTAB
M  END
>  <Structure No>
526

>  <Catalog ID>
Z729340502

>  <MW (desalted)>
340.400

>  <ClogP>
2.417

>  <HBD>
2

>  <TPSA>
73.800

>  <RotBonds>
5

>  <Target>
parp1

>  <fromRegid>


>  <Similarity>


$$$$
Compound 527
Actelion Java MolfileCreator 2.0

  0  0  0  0  0  0              0 V3000
M  V30 BEGIN CTAB
M  V30 COUNTS 19 20 0 0 0
M  V30 BEGIN ATOM
M  V30 1 Cl 0.0 0.0 0.0 0
M  V30 2 C 1.2884 0.7565 0.0 0
M  V30 3 C 2.5769 0.0236 0.0 0
M  V30 4 C 1.2766 2.2696 0.0 0
M  V30 5 N 3.8654 0.7801 0.0 0
M  V30 6 N 2.5651 -1.4657 0.0 0
M  V30 7 C 2.5651 3.0261 0.0 0
M  V30 8 C 3.8536 2.2932 0.0 0
M  V30 9 C 1.253 -2.2105 0.0 0
M  V30 10 C 2.5533 4.5392 0.0 0
M  V30 11 C 1.2411 -3.6999 0.0 0
M  V30 12 O 3.8418 5.2957 0.0 0
M  V30 13 N 1.2411 5.2957 0.0 0
M  V30 14 C -0.0709 -4.4328 0.0 0
M  V30 15 N -1.383 -3.6763 0.0 0
M  V30 16 C -0.0827 -5.9222 0.0 0
M  V30 17 C -2.6951 -4.4092 0.0 0
M  V30 18 C -1.3948 -6.6551 0.0 0
M  V30 19 C -2.7069 -5.8986 0.0 0
M  V30 END ATOM
M  V30 BEGIN BOND
M  V30 1 1 1 2
M  V30 2 2 2 3
M  V30 3 1 2 4
M  V30 4 1 3 5
M  V30 5 1 3 6
M  V30 6 2 4 7
M  V30 7 2 5 8
M  V30 8 1 6 9
M  V30 9 1 7 10
M  V30 10 1 9 11
M  V30 11 2 10 12
M  V30 12 1 10 13
M  V30 13 1 11 14
M  V30 14 2 14 15
M  V30 15 1 14 16
M  V30 16 1 15 17
M  V30 17 2 16 18
M  V30 18 2 17 19
M  V30 19 1 7 8
M  V30 20 1 18 19
M  V30 END BOND
M  V30 END CTAB
M  END
>  <Structure No>
527

>  <Catalog ID>
Z728941594

>  <MW (desalted)>
276.722

>  <ClogP>
1.689

>  <HBD>
2

>  <TPSA>
80.900

>  <RotBonds>
5

>  <Target>
CHK1

>  <fromRegid>


>  <Similarity>


$$$$
Compound 528
Actelion Java MolfileCreator 2.0

  0  0  0  0  0  0              0 V3000
M  V30 BEGIN CTAB
M  V30 COUNTS 23 25 0 0 0
M  V30 BEGIN ATOM
M  V30 1 S 0.0 0.0 0.0 0
M  V30 2 C -1.4404 -0.4486 0.0 0
M  V30 3 C 0.8737 -1.2043 0.0 0
M  V30 4 N -2.751 0.3069 0.0 0
M  V30 5 C -1.4522 -1.9363 0.0 0
M  V30 6 C -0.0236 -2.4086 0.0 0
M  V30 7 C 2.3496 -1.346 0.0 0
M  V30 8 C -4.0616 -0.425 0.0 0
M  V30 9 C -2.7628 -2.6684 0.0 0
M  V30 10 C 0.5785 -3.7664 0.0 0
M  V30 11 C 2.9517 -2.7038 0.0 0
M  V30 12 S -5.3722 0.3306 0.0 0
M  V30 13 N -4.0734 -1.9127 0.0 0
M  V30 14 O -2.7746 -4.1561 0.0 0
M  V30 15 C 2.0544 -3.9081 0.0 0
M  V30 16 C -6.6828 -0.4014 0.0 0
M  V30 17 C -7.9934 0.3542 0.0 0
M  V30 18 O -8.0052 1.8655 0.0 0
M  V30 19 N -9.304 -0.3778 0.0 0
M  V30 20 C -10.6146 0.3778 0.0 0
M  V30 21 C -11.9252 -0.3542 0.0 0
M  V30 22 O -13.2358 0.4014 0.0 0
M  V30 23 C -14.5464 -0.3306 0.0 0
M  V30 END ATOM
M  V30 BEGIN BOND
M  V30 1 1 1 2
M  V30 2 1 1 3
M  V30 3 1 2 4
M  V30 4 2 2 5
M  V30 5 2 3 6
M  V30 6 1 3 7
M  V30 7 2 4 8
M  V30 8 1 5 9
M  V30 9 1 6 10
M  V30 10 1 7 11
M  V30 11 1 8 12
M  V30 12 1 8 13
M  V30 13 2 9 14
M  V30 14 1 10 15
M  V30 15 1 12 16
M  V30 16 1 16 17
M  V30 17 2 17 18
M  V30 18 1 17 19
M  V30 19 1 19 20
M  V30 20 1 20 21
M  V30 21 1 21 22
M  V30 22 1 22 23
M  V30 23 1 5 6
M  V30 24 1 9 13
M  V30 25 1 11 15
M  V30 END BOND
M  V30 END CTAB
M  END
>  <Structure No>
528

>  <Catalog ID>
Z13682394

>  <MW (desalted)>
353.460

>  <ClogP>
1.867

>  <HBD>
2

>  <TPSA>
79.790

>  <RotBonds>
6

>  <Target>
Poly [ADP-ribose] polymerase-1

>  <fromRegid>
CHEMBL2440673

>  <Similarity>
0.92

$$$$
Compound 529
Actelion Java MolfileCreator 2.0

  0  0  0  0  0  0              0 V3000
M  V30 BEGIN CTAB
M  V30 COUNTS 23 25 0 0 0
M  V30 BEGIN ATOM
M  V30 1 S 0.0 0.0 0.0 0
M  V30 2 C -1.4724 0.318 0.0 0
M  V30 3 C 0.1413 -1.4724 0.0 0
M  V30 4 N -2.2381 1.6255 0.0 0
M  V30 5 C -2.2381 -0.9659 0.0 0
M  V30 6 C -1.2368 -2.0731 0.0 0
M  V30 7 C 1.3428 -2.3441 0.0 0
M  V30 8 C -3.7458 1.6373 0.0 0
M  V30 9 C -3.7458 -0.9541 0.0 0
M  V30 10 C -1.4017 -3.5456 0.0 0
M  V30 11 C 1.1779 -3.8165 0.0 0
M  V30 12 S -4.5115 2.9448 0.0 0
M  V30 13 N -4.5115 0.3533 0.0 0
M  V30 14 O -4.5115 -2.2381 0.0 0
M  V30 15 C -0.2002 -4.4173 0.0 0
M  V30 16 C -6.0193 2.9566 0.0 0
M  V30 17 C -6.7732 4.2641 0.0 0
M  V30 18 O -6.0428 5.5717 0.0 0
M  V30 19 N -8.2809 4.2759 0.0 0
M  V30 20 C -9.0348 5.5834 0.0 0
M  V30 21 C -9.0348 2.9919 0.0 0
M  V30 22 C -10.5426 5.5952 0.0 0
M  V30 23 C -10.5426 3.0037 0.0 0
M  V30 END ATOM
M  V30 BEGIN BOND
M  V30 1 1 1 2
M  V30 2 1 1 3
M  V30 3 1 2 4
M  V30 4 2 2 5
M  V30 5 2 3 6
M  V30 6 1 3 7
M  V30 7 2 4 8
M  V30 8 1 5 9
M  V30 9 1 6 10
M  V30 10 1 7 11
M  V30 11 1 8 12
M  V30 12 1 8 13
M  V30 13 2 9 14
M  V30 14 1 10 15
M  V30 15 1 12 16
M  V30 16 1 16 17
M  V30 17 2 17 18
M  V30 18 1 17 19
M  V30 19 1 19 20
M  V30 20 1 19 21
M  V30 21 1 20 22
M  V30 22 1 21 23
M  V30 23 1 5 6
M  V30 24 1 9 13
M  V30 25 1 11 15
M  V30 END BOND
M  V30 END CTAB
M  END
>  <Structure No>
529

>  <Catalog ID>
Z13682430

>  <MW (desalted)>
351.487

>  <ClogP>
2.918

>  <HBD>
1

>  <TPSA>
61.770

>  <RotBonds>
5

>  <Target>
Poly [ADP-ribose] polymerase-1

>  <fromRegid>
CHEMBL2440673

>  <Similarity>
0.93

$$$$
Compound 530
Actelion Java MolfileCreator 2.0

  0  0  0  0  0  0              0 V3000
M  V30 BEGIN CTAB
M  V30 COUNTS 22 23 0 0 0
M  V30 BEGIN ATOM
M  V30 1 Cl 0.0 0.0 0.0 0
M  V30 2 C 1.2832 0.7534 0.0 0
M  V30 3 C 1.2715 2.2604 0.0 0
M  V30 4 C 2.5665 0.0235 0.0 0
M  V30 5 N -0.0353 3.0257 0.0 0
M  V30 6 C 2.5547 3.0257 0.0 0
M  V30 7 C 3.8498 0.777 0.0 0
M  V30 8 C -1.3421 2.284 0.0 0
M  V30 9 C 3.838 2.284 0.0 0
M  V30 10 Cl 5.1331 0.047 0.0 0
M  V30 11 O -1.3539 0.8005 0.0 0
M  V30 12 C -2.6489 3.0492 0.0 0
M  V30 13 O -3.9558 2.3075 0.0 0
M  V30 14 C -5.2626 3.0728 0.0 0
M  V30 15 C -5.2744 4.5797 0.0 0
M  V30 16 C -6.5694 2.3311 0.0 0
M  V30 17 C -6.5812 5.3332 0.0 0
M  V30 18 C -7.8763 3.0963 0.0 0
M  V30 19 C -7.888 4.5915 0.0 0
M  V30 20 C -9.1949 5.345 0.0 0
M  V30 21 O -9.2066 6.852 0.0 0
M  V30 22 N -10.5017 4.6033 0.0 0
M  V30 END ATOM
M  V30 BEGIN BOND
M  V30 1 1 1 2
M  V30 2 2 2 3
M  V30 3 1 2 4
M  V30 4 1 3 5
M  V30 5 1 3 6
M  V30 6 2 4 7
M  V30 7 1 5 8
M  V30 8 2 6 9
M  V30 9 1 7 10
M  V30 10 2 8 11
M  V30 11 1 8 12
M  V30 12 1 12 13
M  V30 13 1 13 14
M  V30 14 2 14 15
M  V30 15 1 14 16
M  V30 16 1 15 17
M  V30 17 2 16 18
M  V30 18 2 17 19
M  V30 19 1 19 20
M  V30 20 2 20 21
M  V30 21 1 20 22
M  V30 22 1 7 9
M  V30 23 1 18 19
M  V30 END BOND
M  V30 END CTAB
M  END
>  <Structure No>
530

>  <Catalog ID>
Z18243052

>  <MW (desalted)>
339.173

>  <ClogP>
2.376

>  <HBD>
2

>  <TPSA>
81.420

>  <RotBonds>
5

>  <Target>
parp14

>  <fromRegid>


>  <Similarity>


$$$$
Compound 531
Actelion Java MolfileCreator 2.0

  0  0  0  0  0  0              0 V3000
M  V30 BEGIN CTAB
M  V30 COUNTS 18 19 0 0 0
M  V30 BEGIN ATOM
M  V30 1 O 0.0 0.0 0.0 0
M  V30 2 C -0.0117 1.5065 0.0 0
M  V30 3 N -1.3181 2.2597 0.0 0
M  V30 4 C 1.2711 2.2597 0.0 0
M  V30 5 C -1.3299 3.7662 0.0 0
M  V30 6 C 1.2593 3.7662 0.0 0
M  V30 7 C 2.554 1.53 0.0 0
M  V30 8 N -0.047 4.5313 0.0 0
M  V30 9 C -2.6363 4.5313 0.0 0
M  V30 10 C 2.5422 4.5313 0.0 0
M  V30 11 C 3.8369 2.2833 0.0 0
M  V30 12 C -3.9428 3.7898 0.0 0
M  V30 13 C 3.8251 3.7898 0.0 0
M  V30 14 C -5.2492 4.5548 0.0 0
M  V30 15 C -6.5556 3.8133 0.0 0
M  V30 16 O -6.5674 2.3303 0.0 0
M  V30 17 N -7.8621 4.5783 0.0 0
M  V30 18 C -9.1685 3.8369 0.0 0
M  V30 END ATOM
M  V30 BEGIN BOND
M  V30 1 2 1 2
M  V30 2 1 2 3
M  V30 3 1 2 4
M  V30 4 1 3 5
M  V30 5 2 4 6
M  V30 6 1 4 7
M  V30 7 2 5 8
M  V30 8 1 5 9
M  V30 9 1 6 10
M  V30 10 2 7 11
M  V30 11 1 9 12
M  V30 12 2 10 13
M  V30 13 1 12 14
M  V30 14 1 14 15
M  V30 15 2 15 16
M  V30 16 1 15 17
M  V30 17 1 17 18
M  V30 18 1 6 8
M  V30 19 1 11 13
M  V30 END BOND
M  V30 END CTAB
M  END
>  <Structure No>
531

>  <Catalog ID>
Z30271708

>  <MW (desalted)>
245.277

>  <ClogP>
-0.439

>  <HBD>
2

>  <TPSA>
70.560

>  <RotBonds>
4

>  <Target>
Poly [ADP-ribose] polymerase-1

>  <fromRegid>
CHEMBL2377256

>  <Similarity>
0.92

$$$$
Compound 532
Actelion Java MolfileCreator 2.0

  0  0  0  0  0  0              0 V3000
M  V30 BEGIN CTAB
M  V30 COUNTS 26 28 0 0 0
M  V30 BEGIN ATOM
M  V30 1 Cl 0.0 0.0 0.0 0
M  V30 2 C -1.4912 -0.1409 0.0 0
M  V30 3 C -2.3835 1.0802 0.0 0
M  V30 4 C -2.1135 -1.4912 0.0 0
M  V30 5 C -3.8748 0.9393 0.0 0
M  V30 6 C -3.6047 -1.6321 0.0 0
M  V30 7 O -4.7671 2.1605 0.0 0
M  V30 8 C -4.4971 -0.4109 0.0 0
M  V30 9 C -6.2584 2.0195 0.0 0
M  V30 10 C -5.9883 -0.5518 0.0 0
M  V30 11 C -7.1507 3.2407 0.0 0
M  V30 12 O -6.8807 0.6692 0.0 0
M  V30 13 N -6.6106 -1.9021 0.0 0
M  V30 14 N -6.7045 4.6732 0.0 0
M  V30 15 C -8.6537 3.2524 0.0 0
M  V30 16 C -7.9257 5.5656 0.0 0
M  V30 17 S -9.1234 4.685 0.0 0
M  V30 18 C -7.9374 7.0685 0.0 0
M  V30 19 C -6.6576 7.82 0.0 0
M  V30 20 C -9.2408 7.82 0.0 0
M  V30 21 C -6.6693 9.323 0.0 0
M  V30 22 C -9.2525 9.323 0.0 0
M  V30 23 C -7.9727 10.0745 0.0 0
M  V30 24 C -7.9844 11.5774 0.0 0
M  V30 25 O -6.7045 12.3289 0.0 0
M  V30 26 N -9.2878 12.3289 0.0 0
M  V30 END ATOM
M  V30 BEGIN BOND
M  V30 1 1 1 2
M  V30 2 2 2 3
M  V30 3 1 2 4
M  V30 4 1 3 5
M  V30 5 2 4 6
M  V30 6 1 5 7
M  V30 7 2 5 8
M  V30 8 1 7 9
M  V30 9 1 8 10
M  V30 10 1 9 11
M  V30 11 2 10 12
M  V30 12 1 10 13
M  V30 13 1 11 14
M  V30 14 2 11 15
M  V30 15 2 14 16
M  V30 16 1 15 17
M  V30 17 1 16 18
M  V30 18 2 18 19
M  V30 19 1 18 20
M  V30 20 1 19 21
M  V30 21 2 20 22
M  V30 22 2 21 23
M  V30 23 1 23 24
M  V30 24 2 24 25
M  V30 25 1 24 26
M  V30 26 1 6 8
M  V30 27 1 16 17
M  V30 28 1 22 23
M  V30 END BOND
M  V30 END CTAB
M  END
>  <Structure No>
532

>  <Catalog ID>
Z913565914

>  <MW (desalted)>
387.840

>  <ClogP>
2.443

>  <HBD>
2

>  <TPSA>
108.300

>  <RotBonds>
6

>  <Target>
parp14

>  <fromRegid>


>  <Similarity>


$$$$
Compound 533
Actelion Java MolfileCreator 2.0

  0  0  0  0  0  0              0 V3000
M  V30 BEGIN CTAB
M  V30 COUNTS 27 30 0 0 0
M  V30 BEGIN ATOM
M  V30 1 S 0.0 0.0 0.0 0
M  V30 2 N -1.4812 0.3199 0.0 0
M  V30 3 C 0.1422 -1.4812 0.0 0
M  V30 4 C -2.2397 -0.9717 0.0 0
M  V30 5 N -1.2442 -2.0856 0.0 0
M  V30 6 N 1.4338 -2.216 0.0 0
M  V30 7 C -3.7447 -1.1139 0.0 0
M  V30 8 C 2.7255 -1.4575 0.0 0
M  V30 9 C -4.3727 -2.4767 0.0 0
M  V30 10 C -4.6453 0.1185 0.0 0
M  V30 11 O 2.7137 0.0592 0.0 0
M  V30 12 C 4.0172 -2.1923 0.0 0
M  V30 13 C -5.8777 -2.6189 0.0 0
M  V30 14 C -6.1503 -0.0237 0.0 0
M  V30 15 C 5.3089 -1.4338 0.0 0
M  V30 16 C -6.7784 -1.3864 0.0 0
M  V30 17 C 6.6006 -2.1686 0.0 0
M  V30 18 N 7.8923 -1.4101 0.0 0
M  V30 19 N 6.5888 -3.6617 0.0 0
M  V30 20 C 9.184 -2.1449 0.0 0
M  V30 21 C 7.8804 -4.4083 0.0 0
M  V30 22 C 9.1721 -3.638 0.0 0
M  V30 23 C 10.4757 -1.3864 0.0 0
M  V30 24 O 7.8686 -5.9014 0.0 0
M  V30 25 C 10.4638 -4.3846 0.0 0
M  V30 26 C 11.7674 -2.1212 0.0 0
M  V30 27 C 11.7555 -3.6143 0.0 0
M  V30 END ATOM
M  V30 BEGIN BOND
M  V30 1 1 1 2
M  V30 2 1 1 3
M  V30 3 2 2 4
M  V30 4 2 3 5
M  V30 5 1 3 6
M  V30 6 1 4 7
M  V30 7 1 6 8
M  V30 8 2 7 9
M  V30 9 1 7 10
M  V30 10 2 8 11
M  V30 11 1 8 12
M  V30 12 1 9 13
M  V30 13 2 10 14
M  V30 14 1 12 15
M  V30 15 2 13 16
M  V30 16 1 15 17
M  V30 17 2 17 18
M  V30 18 1 17 19
M  V30 19 1 18 20
M  V30 20 1 19 21
M  V30 21 2 20 22
M  V30 22 1 20 23
M  V30 23 2 21 24
M  V30 24 1 22 25
M  V30 25 2 23 26
M  V30 26 2 25 27
M  V30 27 1 4 5
M  V30 28 1 14 16
M  V30 29 1 21 22
M  V30 30 1 26 27
M  V30 END BOND
M  V30 END CTAB
M  END
>  <Structure No>
533

>  <Catalog ID>
Z737273616

>  <MW (desalted)>
377.420

>  <ClogP>
2.079

>  <HBD>
2

>  <TPSA>
96.340

>  <RotBonds>
5

>  <Target>
Tankyrase1

>  <fromRegid>


>  <Similarity>


$$$$
Compound 534
Actelion Java MolfileCreator 2.0

  0  0  0  0  0  0              0 V3000
M  V30 BEGIN CTAB
M  V30 COUNTS 22 24 0 0 0
M  V30 BEGIN ATOM
M  V30 1 O 0.0 0.0 0.0 0
M  V30 2 C -1.4999 -0.1417 0.0 0
M  V30 3 N -2.1258 -1.4999 0.0 0
M  V30 4 C -2.3974 1.0865 0.0 0
M  V30 5 C -1.3817 -2.7872 0.0 0 CFG=2
M  V30 6 C -3.6021 -1.7951 0.0 0
M  V30 7 N -3.9091 1.0983 0.0 0
M  V30 8 C -1.9486 2.5273 0.0 0
M  V30 9 C -2.3974 -3.8855 0.0 0
M  V30 10 C 0.0944 -2.9289 0.0 0
M  V30 11 C -3.7674 -3.2714 0.0 0
M  V30 12 N -4.3815 2.5392 0.0 0
M  V30 13 C -3.1769 3.4249 0.0 0
M  V30 14 C 0.6968 -4.2871 0.0 0
M  V30 15 C -3.1887 4.9366 0.0 0
M  V30 16 C 2.173 -4.4288 0.0 0
M  V30 17 C -0.2007 -5.4917 0.0 0
M  V30 18 C -4.4997 5.6925 0.0 0
M  V30 19 C 2.7754 -5.787 0.0 0
M  V30 20 C 0.4015 -6.8499 0.0 0
M  V30 21 C -4.5115 7.2042 0.0 0
M  V30 22 C 1.8778 -6.9916 0.0 0
M  V30 END ATOM
M  V30 BEGIN BOND
M  V30 1 2 1 2
M  V30 2 1 2 3
M  V30 3 1 2 4
M  V30 4 1 3 5
M  V30 5 1 3 6
M  V30 6 1 4 7
M  V30 7 2 4 8
M  V30 8 1 5 9
M  V30 9 1 5 10 CFG=1
M  V30 10 1 6 11
M  V30 11 1 7 12
M  V30 12 1 8 13
M  V30 13 1 10 14
M  V30 14 1 13 15
M  V30 15 2 14 16
M  V30 16 1 14 17
M  V30 17 1 15 18
M  V30 18 1 16 19
M  V30 19 2 17 20
M  V30 20 1 18 21
M  V30 21 2 19 22
M  V30 22 1 9 11
M  V30 23 2 12 13
M  V30 24 1 20 22
M  V30 END BOND
M  V30 BEGIN COLLECTION
M  V30 MDLV30/STERAC1 ATOMS=(1 5)
M  V30 END COLLECTION
M  V30 END CTAB
M  END
>  <Structure No>
534

>  <Catalog ID>
Z298616602

>  <MW (desalted)>
297.395

>  <ClogP>
3.391

>  <HBD>
1

>  <TPSA>
48.990

>  <RotBonds>
5

>  <Target>
CHK1

>  <fromRegid>


>  <Similarity>


$$$$
Compound 535
Actelion Java MolfileCreator 2.0

  0  0  0  0  0  0              0 V3000
M  V30 BEGIN CTAB
M  V30 COUNTS 24 27 0 0 0
M  V30 BEGIN ATOM
M  V30 1 F 0.0 0.0 0.0 0
M  V30 2 C 1.4628 -0.2973 0.0 0
M  V30 3 C 1.9148 -1.7245 0.0 0
M  V30 4 C 2.4619 0.8325 0.0 0
M  V30 5 C 3.3777 -2.0218 0.0 0
M  V30 6 C 1.1417 -3.0209 0.0 0
M  V30 7 C 3.9248 0.5352 0.0 0
M  V30 8 C 4.3767 -0.892 0.0 0
M  V30 9 C 3.5204 -3.5085 0.0 0 CFG=2
M  V30 10 C 2.1408 -4.1269 0.0 0
M  V30 11 N 4.8168 -4.2459 0.0 0
M  V30 12 C 6.1131 -3.4847 0.0 0
M  V30 13 O 6.1012 -1.9624 0.0 0
M  V30 14 C 7.4095 -4.2221 0.0 0
M  V30 15 N 7.3976 -5.7206 0.0 0
M  V30 16 C 8.7059 -3.4609 0.0 0
M  V30 17 C 8.694 -6.4699 0.0 0
M  V30 18 C 10.0022 -4.1983 0.0 0
M  V30 19 O 8.6821 -7.9685 0.0 0
M  V30 20 C 9.9904 -5.6969 0.0 0
M  V30 21 C 11.2986 -3.4371 0.0 0
M  V30 22 C 11.2867 -6.4461 0.0 0
M  V30 23 C 12.595 -4.1745 0.0 0
M  V30 24 C 12.5831 -5.6731 0.0 0
M  V30 END ATOM
M  V30 BEGIN BOND
M  V30 1 1 1 2
M  V30 2 2 2 3
M  V30 3 1 2 4
M  V30 4 1 3 5
M  V30 5 1 3 6
M  V30 6 2 4 7
M  V30 7 2 5 8
M  V30 8 1 5 9
M  V30 9 1 6 10
M  V30 10 1 9 11 CFG=1
M  V30 11 1 11 12
M  V30 12 2 12 13
M  V30 13 1 12 14
M  V30 14 1 14 15
M  V30 15 2 14 16
M  V30 16 1 15 17
M  V30 17 1 16 18
M  V30 18 2 17 19
M  V30 19 1 17 20
M  V30 20 1 18 21
M  V30 21 1 20 22
M  V30 22 2 21 23
M  V30 23 2 22 24
M  V30 24 1 7 8
M  V30 25 1 9 10
M  V30 26 2 18 20
M  V30 27 1 23 24
M  V30 END BOND
M  V30 BEGIN COLLECTION
M  V30 MDLV30/STERAC1 ATOMS=(1 9)
M  V30 END COLLECTION
M  V30 END CTAB
M  END
>  <Structure No>
535

>  <Catalog ID>
Z812197000

>  <MW (desalted)>
322.333

>  <ClogP>
2.640

>  <HBD>
2

>  <TPSA>
58.200

>  <RotBonds>
2

>  <Target>
parp3

>  <fromRegid>


>  <Similarity>


$$$$
Compound 536
Actelion Java MolfileCreator 2.0

  0  0  0  0  0  0              0 V3000
M  V30 BEGIN CTAB
M  V30 COUNTS 27 30 0 0 0
M  V30 BEGIN ATOM
M  V30 1 O 0.0 0.0 0.0 0
M  V30 2 C -0.0117 1.5102 0.0 0
M  V30 3 N -1.3214 2.2653 0.0 0
M  V30 4 N 1.2742 2.2653 0.0 0
M  V30 5 C -1.3332 3.7755 0.0 0
M  V30 6 C -2.6311 1.5338 0.0 0
M  V30 7 C 2.5603 1.5338 0.0 0
M  V30 8 C -2.6429 4.5307 0.0 0
M  V30 9 C -3.9407 2.2889 0.0 0
M  V30 10 C 3.8463 2.2889 0.0 0
M  V30 11 C -3.9525 3.7873 0.0 0
M  V30 12 O 5.1324 1.5574 0.0 0
M  V30 13 C -5.2622 4.5425 0.0 0
M  V30 14 C 5.1206 0.0707 0.0 0
M  V30 15 C -5.4274 6.0409 0.0 0
M  V30 16 C -6.6426 3.9407 0.0 0
M  V30 17 C 6.4067 -0.6607 0.0 0
M  V30 18 C 3.8109 -0.6607 0.0 0
M  V30 19 C -6.9022 6.3595 0.0 0
M  V30 20 C -4.4363 7.1618 0.0 0
M  V30 21 N -7.6573 5.0616 0.0 0
M  V30 22 C 6.3949 -2.1473 0.0 0
M  V30 23 C 3.7991 -2.1473 0.0 0
M  V30 24 N -7.3742 7.7989 0.0 0
M  V30 25 C -4.9082 8.6012 0.0 0
M  V30 26 C 5.0852 -2.8788 0.0 0
M  V30 27 C -6.3831 8.9198 0.0 0
M  V30 END ATOM
M  V30 BEGIN BOND
M  V30 1 2 1 2
M  V30 2 1 2 3
M  V30 3 1 2 4
M  V30 4 1 3 5
M  V30 5 1 3 6
M  V30 6 1 4 7
M  V30 7 1 5 8
M  V30 8 1 6 9
M  V30 9 1 7 10
M  V30 10 2 8 11
M  V30 11 1 10 12
M  V30 12 1 11 13
M  V30 13 1 12 14
M  V30 14 1 13 15
M  V30 15 2 13 16
M  V30 16 2 14 17
M  V30 17 1 14 18
M  V30 18 2 15 19
M  V30 19 1 15 20
M  V30 20 1 16 21
M  V30 21 1 17 22
M  V30 22 2 18 23
M  V30 23 1 19 24
M  V30 24 2 20 25
M  V30 25 2 22 26
M  V30 26 2 24 27
M  V30 27 1 9 11
M  V30 28 1 19 21
M  V30 29 1 23 26
M  V30 30 1 25 27
M  V30 END BOND
M  V30 END CTAB
M  END
>  <Structure No>
536

>  <Catalog ID>
Z336508756

>  <MW (desalted)>
362.425

>  <ClogP>
3.212

>  <HBD>
2

>  <TPSA>
70.250

>  <RotBonds>
5

>  <Target>
Serine/threonine-protein kinase Chk2

>  <fromRegid>
CHEMBL1965845

>  <Similarity>
0.86

$$$$
Compound 537
Actelion Java MolfileCreator 2.0

  0  0  0  0  0  0              0 V3000
M  V30 BEGIN CTAB
M  V30 COUNTS 25 26 0 0 0
M  V30 BEGIN ATOM
M  V30 1 O 0.0 0.0 0.0 0
M  V30 2 N -1.3067 -0.7416 0.0 0 CHG=1
M  V30 3 O -1.3185 -2.225 0.0 0 CHG=-1
M  V30 4 C -2.6134 0.0117 0.0 0
M  V30 5 C -3.9202 -0.7298 0.0 0
M  V30 6 C -2.6252 1.5186 0.0 0
M  V30 7 C -5.2269 0.0235 0.0 0
M  V30 8 C -3.932 2.272 0.0 0
M  V30 9 N -6.5337 -0.7181 0.0 0
M  V30 10 C -5.2387 1.5304 0.0 0
M  V30 11 C -7.8404 0.0353 0.0 0
M  V30 12 O -7.8522 1.5422 0.0 0
M  V30 13 N -9.1472 -0.7063 0.0 0
M  V30 14 C -10.4539 0.047 0.0 0
M  V30 15 C -11.7607 -0.6945 0.0 0
M  V30 16 C -13.0674 0.0588 0.0 0
M  V30 17 N -14.3742 -0.6828 0.0 0
M  V30 18 C -14.386 -2.1661 0.0 0
M  V30 19 C -15.6809 0.0706 0.0 0
M  V30 20 C -15.6927 -2.896 0.0 0 CFG=1
M  V30 21 C -16.9877 -0.671 0.0 0
M  V30 22 C -15.7045 -4.3793 0.0 0
M  V30 23 C -16.9995 -2.1425 0.0 0
M  V30 24 O -14.4213 -5.1092 0.0 0
M  V30 25 N -17.0112 -5.1092 0.0 0
M  V30 END ATOM
M  V30 BEGIN BOND
M  V30 1 2 1 2
M  V30 2 1 2 3
M  V30 3 1 2 4
M  V30 4 2 4 5
M  V30 5 1 4 6
M  V30 6 1 5 7
M  V30 7 2 6 8
M  V30 8 1 7 9
M  V30 9 2 7 10
M  V30 10 1 9 11
M  V30 11 2 11 12
M  V30 12 1 11 13
M  V30 13 1 13 14
M  V30 14 1 14 15
M  V30 15 1 15 16
M  V30 16 1 16 17
M  V30 17 1 17 18
M  V30 18 1 17 19
M  V30 19 1 18 20
M  V30 20 1 19 21
M  V30 21 1 20 22 CFG=1
M  V30 22 1 20 23
M  V30 23 2 22 24
M  V30 24 1 22 25
M  V30 25 1 8 10
M  V30 26 1 21 23
M  V30 END BOND
M  V30 BEGIN COLLECTION
M  V30 MDLV30/STERAC1 ATOMS=(1 20)
M  V30 END COLLECTION
M  V30 END CTAB
M  END
>  <Structure No>
537

>  <Catalog ID>
Z1033336030

>  <MW (desalted)>
349.385

>  <ClogP>
1.695

>  <HBD>
3

>  <TPSA>
130.600

>  <RotBonds>
7

>  <Target>
DNA_pk

>  <fromRegid>


>  <Similarity>


$$$$
Compound 538
Actelion Java MolfileCreator 2.0

  0  0  0  0  0  0              0 V3000
M  V30 BEGIN CTAB
M  V30 COUNTS 24 26 0 0 0
M  V30 BEGIN ATOM
M  V30 1 O 0.0 0.0 0.0 0
M  V30 2 C -0.0117 1.5085 0.0 0
M  V30 3 N -1.3199 2.2746 0.0 0
M  V30 4 C 1.2728 2.2746 0.0 0
M  V30 5 C -1.3317 3.7831 0.0 0
M  V30 6 C 1.261 3.7831 0.0 0
M  V30 7 C 2.5574 1.5321 0.0 0
M  V30 8 C -2.6399 4.5374 0.0 0
M  V30 9 C -0.0471 4.5374 0.0 0
M  V30 10 C 2.5456 4.5374 0.0 0
M  V30 11 C 3.842 2.2981 0.0 0
M  V30 12 O -2.6517 6.0459 0.0 0
M  V30 13 N -3.9481 3.8067 0.0 0
M  V30 14 C 3.8303 3.8067 0.0 0
M  V30 15 C -5.2563 4.561 0.0 0
M  V30 16 C -3.9599 2.3217 0.0 0
M  V30 17 C -6.5645 3.8303 0.0 0
M  V30 18 C -5.2681 6.0695 0.0 0
M  V30 19 C -5.2681 1.5792 0.0 0
M  V30 20 C -6.647 2.2038 0.0 0
M  V30 21 C -5.4331 0.106 0.0 0
M  V30 22 N -7.6606 1.1078 0.0 0
M  V30 23 N -6.9063 -0.1885 0.0 0
M  V30 24 C -7.5309 -1.5439 0.0 0
M  V30 END ATOM
M  V30 BEGIN BOND
M  V30 1 2 1 2
M  V30 2 1 2 3
M  V30 3 1 2 4
M  V30 4 1 3 5
M  V30 5 2 4 6
M  V30 6 1 4 7
M  V30 7 1 5 8
M  V30 8 2 5 9
M  V30 9 1 6 10
M  V30 10 2 7 11
M  V30 11 2 8 12
M  V30 12 1 8 13
M  V30 13 2 10 14
M  V30 14 1 13 15
M  V30 15 1 13 16
M  V30 16 1 15 17
M  V30 17 1 15 18
M  V30 18 1 16 19
M  V30 19 1 19 20
M  V30 20 2 19 21
M  V30 21 2 20 22
M  V30 22 1 21 23
M  V30 23 1 23 24
M  V30 24 1 6 9
M  V30 25 1 11 14
M  V30 26 1 22 23
M  V30 END BOND
M  V30 END CTAB
M  END
>  <Structure No>
538

>  <Catalog ID>
Z776182730

>  <MW (desalted)>
324.377

>  <ClogP>
0.910

>  <HBD>
1

>  <TPSA>
67.230

>  <RotBonds>
4

>  <Target>
parp2

>  <fromRegid>


>  <Similarity>


$$$$
Compound 539
Actelion Java MolfileCreator 2.0

  0  0  0  0  0  0              0 V3000
M  V30 BEGIN CTAB
M  V30 COUNTS 38 41 0 0 0
M  V30 BEGIN ATOM
M  V30 1 S 0.0 0.0 0.0 0
M  V30 2 C 0.8717 1.2251 0.0 0
M  V30 3 C -1.4961 0.1649 0.0 0
M  V30 4 N 2.356 1.2369 0.0 0
M  V30 5 N 0.4005 2.6623 0.0 0
M  V30 6 C -2.3914 -1.0366 0.0 0
M  V30 7 N 2.8037 2.6741 0.0 0
M  V30 8 C -1.0366 3.1335 0.0 0
M  V30 9 C 1.6021 3.5576 0.0 0
M  V30 10 O -1.7906 -2.3914 0.0 0
M  V30 11 N -3.8875 -0.8717 0.0 0
M  V30 12 C -2.1558 2.144 0.0 0
M  V30 13 C -1.3547 4.6061 0.0 0
M  V30 14 C 1.5903 5.0655 0.0 0
M  V30 15 C -4.7828 -2.0733 0.0 0
M  V30 16 C -3.593 2.6152 0.0 0
M  V30 17 C -2.7919 5.0773 0.0 0
M  V30 18 C 2.8744 5.8195 0.0 0
M  V30 19 C 0.2827 5.8195 0.0 0
M  V30 20 C -4.182 -3.428 0.0 0
M  V30 21 C -6.2789 -1.9084 0.0 0
M  V30 22 C -3.911 4.0877 0.0 0
M  V30 23 C 2.8626 7.3274 0.0 0
M  V30 24 C 0.2709 7.3274 0.0 0
M  V30 25 C -5.0773 -4.6296 0.0 0
M  V30 26 C -7.1742 -3.11 0.0 0
M  V30 27 C 1.555 8.0813 0.0 0
M  V30 28 C -4.4765 -5.9844 0.0 0
M  V30 29 C -6.5734 -4.4647 0.0 0
M  V30 30 C -8.6703 -2.945 0.0 0
M  V30 31 C 1.5432 9.5892 0.0 0
M  V30 32 O -5.3718 -7.186 0.0 0
M  V30 33 N -3.0039 -6.1258 0.0 0
M  V30 34 O -9.5656 -4.1466 0.0 0
M  V30 35 N -9.2947 -1.5667 0.0 0
M  V30 36 C 1.5314 11.0971 0.0 0
M  V30 37 C 0.0353 9.601 0.0 0
M  V30 38 C 3.0275 9.601 0.0 0
M  V30 END ATOM
M  V30 BEGIN BOND
M  V30 1 1 1 2
M  V30 2 1 1 3
M  V30 3 2 2 4
M  V30 4 1 2 5
M  V30 5 1 3 6
M  V30 6 1 4 7
M  V30 7 1 5 8
M  V30 8 1 5 9
M  V30 9 2 6 10
M  V30 10 1 6 11
M  V30 11 2 8 12
M  V30 12 1 8 13
M  V30 13 1 9 14
M  V30 14 1 11 15
M  V30 15 1 12 16
M  V30 16 2 13 17
M  V30 17 2 14 18
M  V30 18 1 14 19
M  V30 19 2 15 20
M  V30 20 1 15 21
M  V30 21 2 16 22
M  V30 22 1 18 23
M  V30 23 2 19 24
M  V30 24 1 20 25
M  V30 25 2 21 26
M  V30 26 2 23 27
M  V30 27 1 25 28
M  V30 28 2 25 29
M  V30 29 1 26 30
M  V30 30 1 27 31
M  V30 31 2 28 32
M  V30 32 1 28 33
M  V30 33 2 30 34
M  V30 34 1 30 35
M  V30 35 1 31 36
M  V30 36 1 31 37
M  V30 37 1 31 38
M  V30 38 2 7 9
M  V30 39 1 17 22
M  V30 40 1 24 27
M  V30 41 1 26 29
M  V30 END BOND
M  V30 END CTAB
M  END
>  <Structure No>
539

>  <Catalog ID>
Z13857099

>  <MW (desalted)>
528.625

>  <ClogP>
3.835

>  <HBD>
3

>  <TPSA>
145.990

>  <RotBonds>
9

>  <Target>
parp14

>  <fromRegid>


>  <Similarity>


$$$$
Compound 540
Actelion Java MolfileCreator 2.0

  0  0  0  0  0  0              0 V3000
M  V30 BEGIN CTAB
M  V30 COUNTS 27 30 0 0 0
M  V30 BEGIN ATOM
M  V30 1 O 0.0 0.0 0.0 0
M  V30 2 C 0.2956 -1.4545 0.0 0
M  V30 3 N 1.6555 -2.0576 0.0 0
M  V30 4 N -0.7213 -2.5543 0.0 0
M  V30 5 C 1.49 -3.5358 0.0 0
M  V30 6 C 2.9445 -1.3008 0.0 0
M  V30 7 C 0.0118 -3.8433 0.0 0
M  V30 8 O 2.5897 -4.5291 0.0 0
M  V30 9 C 2.9327 0.2128 0.0 0
M  V30 10 C -1.49 -3.9852 0.0 0
M  V30 11 C 0.8869 -5.0495 0.0 0
M  V30 12 O 1.6201 0.9815 0.0 0
M  V30 13 N 4.2217 0.9815 0.0 0
M  V30 14 C -2.1167 -5.3451 0.0 0
M  V30 15 C 0.2601 -6.4094 0.0 0
M  V30 16 C 4.2099 2.4951 0.0 0 CFG=2
M  V30 17 C -1.2416 -6.5513 0.0 0
M  V30 18 C 5.4988 3.252 0.0 0
M  V30 19 C 2.8972 3.252 0.0 0
M  V30 20 C -1.8684 -7.9113 0.0 0
M  V30 21 C 5.487 4.7657 0.0 0
M  V30 22 C 6.7878 2.507 0.0 0
M  V30 23 C 2.8854 4.7657 0.0 0
M  V30 24 C 6.776 5.5225 0.0 0
M  V30 25 C 4.1744 5.5225 0.0 0
M  V30 26 C 8.0768 3.2638 0.0 0
M  V30 27 C 8.065 4.7893 0.0 0
M  V30 END ATOM
M  V30 BEGIN BOND
M  V30 1 2 1 2
M  V30 2 1 2 3
M  V30 3 1 2 4
M  V30 4 1 3 5
M  V30 5 1 3 6
M  V30 6 1 4 7
M  V30 7 2 5 8
M  V30 8 1 6 9
M  V30 9 1 7 10
M  V30 10 1 7 11
M  V30 11 2 9 12
M  V30 12 1 9 13
M  V30 13 1 10 14
M  V30 14 1 11 15
M  V30 15 1 16 13 CFG=1
M  V30 16 1 14 17
M  V30 17 1 16 18
M  V30 18 1 16 19
M  V30 19 1 17 20
M  V30 20 2 18 21
M  V30 21 1 18 22
M  V30 22 1 19 23
M  V30 23 1 21 24
M  V30 24 1 21 25
M  V30 25 2 22 26
M  V30 26 2 24 27
M  V30 27 1 5 7
M  V30 28 1 15 17
M  V30 29 1 23 25
M  V30 30 1 26 27
M  V30 END BOND
M  V30 BEGIN COLLECTION
M  V30 MDLV30/STERAC1 ATOMS=(1 16)
M  V30 END COLLECTION
M  V30 END CTAB
M  END
>  <Structure No>
540

>  <Catalog ID>
Z13864398

>  <MW (desalted)>
369.457

>  <ClogP>
3.636

>  <HBD>
2

>  <TPSA>
78.510

>  <RotBonds>
3

>  <Target>
ATM

>  <fromRegid>


>  <Similarity>


$$$$
Compound 541
Actelion Java MolfileCreator 2.0

  0  0  0  0  0  0              0 V3000
M  V30 BEGIN CTAB
M  V30 COUNTS 29 31 0 0 0
M  V30 BEGIN ATOM
M  V30 1 O 0.0 0.0 0.0 0
M  V30 2 C 1.2864 -0.7435 0.0 0
M  V30 3 N 1.2746 -2.2305 0.0 0
M  V30 4 C 2.5728 0.0236 0.0 0 CFG=1
M  V30 5 C 2.561 -2.9623 0.0 0
M  V30 6 C -0.0354 -2.9623 0.0 0
M  V30 7 O 3.8592 -0.7199 0.0 0
M  V30 8 C 2.561 1.5342 0.0 0
M  V30 9 C 3.8474 -2.2069 0.0 0
M  V30 10 C 2.5492 -4.4493 0.0 0
M  V30 11 C -1.3454 -2.2069 0.0 0
M  V30 12 C 5.1339 -2.9387 0.0 0
M  V30 13 C 3.8356 -5.1811 0.0 0
M  V30 14 C -2.6554 -2.9387 0.0 0
M  V30 15 C 5.1221 -4.4257 0.0 0
M  V30 16 O -2.6672 -4.4257 0.0 0
M  V30 17 N -3.9655 -2.1833 0.0 0
M  V30 18 C -5.2755 -2.9151 0.0 0
M  V30 19 C -3.9773 -0.6727 0.0 0
M  V30 20 C -6.5855 -2.1597 0.0 0
M  V30 21 C -6.5973 -0.6491 0.0 0
M  V30 22 C -7.8955 -2.8915 0.0 0
M  V30 23 C -7.9073 0.118 0.0 0
M  V30 24 C -9.2056 -2.1361 0.0 0
M  V30 25 C -9.2174 -0.6255 0.0 0
M  V30 26 C -10.5274 0.1416 0.0 0
M  V30 27 O -10.5392 1.6522 0.0 0
M  V30 28 N -11.8374 -0.6019 0.0 0
M  V30 29 C -13.1475 0.1652 0.0 0
M  V30 END ATOM
M  V30 BEGIN BOND
M  V30 1 2 1 2
M  V30 2 1 2 3
M  V30 3 1 2 4
M  V30 4 1 3 5
M  V30 5 1 3 6
M  V30 6 1 4 7
M  V30 7 1 4 8 CFG=3
M  V30 8 2 5 9
M  V30 9 1 5 10
M  V30 10 1 6 11
M  V30 11 1 9 12
M  V30 12 2 10 13
M  V30 13 1 11 14
M  V30 14 2 12 15
M  V30 15 2 14 16
M  V30 16 1 14 17
M  V30 17 1 17 18
M  V30 18 1 17 19
M  V30 19 1 18 20
M  V30 20 2 20 21
M  V30 21 1 20 22
M  V30 22 1 21 23
M  V30 23 2 22 24
M  V30 24 2 23 25
M  V30 25 1 25 26
M  V30 26 2 26 27
M  V30 27 1 26 28
M  V30 28 1 28 29
M  V30 29 1 7 9
M  V30 30 1 13 15
M  V30 31 1 24 25
M  V30 END BOND
M  V30 BEGIN COLLECTION
M  V30 MDLV30/STERAC1 ATOMS=(1 4)
M  V30 END COLLECTION
M  V30 END CTAB
M  END
>  <Structure No>
541

>  <Catalog ID>
Z167358780

>  <MW (desalted)>
395.452

>  <ClogP>
1.772

>  <HBD>
1

>  <TPSA>
78.950

>  <RotBonds>
6

>  <Target>
Poly [ADP-ribose] polymerase-1

>  <fromRegid>
CHEMBL2407972

>  <Similarity>
0.87

$$$$
Compound 542
Actelion Java MolfileCreator 2.0

  0  0  0  0  0  0              0 V3000
M  V30 BEGIN CTAB
M  V30 COUNTS 23 25 0 0 0
M  V30 BEGIN ATOM
M  V30 1 F 0.0 0.0 0.0 0
M  V30 2 C -1.3167 -0.7473 0.0 0
M  V30 3 C -1.3285 -2.2419 0.0 0
M  V30 4 C -2.6334 0.0237 0.0 0
M  V30 5 C -2.6453 -2.9774 0.0 0
M  V30 6 C -3.9501 -0.7236 0.0 0
M  V30 7 C -2.6571 -4.4721 0.0 0
M  V30 8 C -3.962 -2.2182 0.0 0
M  V30 9 O -3.9739 -5.2076 0.0 0
M  V30 10 N -1.3641 -5.2076 0.0 0
M  V30 11 C -1.376 -6.7022 0.0 0
M  V30 12 C -0.0711 -4.4484 0.0 0
M  V30 13 C -0.083 -7.4377 0.0 0
M  V30 14 N 1.2099 -6.6785 0.0 0
M  V30 15 N -0.0948 -8.9324 0.0 0
M  V30 16 C 2.5029 -7.414 0.0 0
M  V30 17 C 1.1981 -9.6797 0.0 0
M  V30 18 C 2.4911 -8.9086 0.0 0
M  V30 19 C 3.7959 -6.6548 0.0 0
M  V30 20 O 1.1862 -11.1744 0.0 0
M  V30 21 C 3.7841 -9.656 0.0 0
M  V30 22 C 5.0889 -7.3902 0.0 0
M  V30 23 C 5.0771 -8.8968 0.0 0
M  V30 END ATOM
M  V30 BEGIN BOND
M  V30 1 1 1 2
M  V30 2 2 2 3
M  V30 3 1 2 4
M  V30 4 1 3 5
M  V30 5 2 4 6
M  V30 6 1 5 7
M  V30 7 2 5 8
M  V30 8 2 7 9
M  V30 9 1 7 10
M  V30 10 1 10 11
M  V30 11 1 10 12
M  V30 12 1 11 13
M  V30 13 2 13 14
M  V30 14 1 13 15
M  V30 15 1 14 16
M  V30 16 1 15 17
M  V30 17 2 16 18
M  V30 18 1 16 19
M  V30 19 2 17 20
M  V30 20 1 18 21
M  V30 21 2 19 22
M  V30 22 2 21 23
M  V30 23 1 6 8
M  V30 24 1 17 18
M  V30 25 1 22 23
M  V30 END BOND
M  V30 END CTAB
M  END
>  <Structure No>
542

>  <Catalog ID>
Z30084953

>  <MW (desalted)>
311.310

>  <ClogP>
1.177

>  <HBD>
1

>  <TPSA>
61.770

>  <RotBonds>
3

>  <Target>
parp15

>  <fromRegid>


>  <Similarity>


$$$$
Compound 543
Actelion Java MolfileCreator 2.0

  0  0  0  0  0  0              0 V3000
M  V30 BEGIN CTAB
M  V30 COUNTS 26 29 0 0 0
M  V30 BEGIN ATOM
M  V30 1 O 0.0 0.0 0.0 0
M  V30 2 C -0.0117 1.5083 0.0 0
M  V30 3 N -1.3197 2.2742 0.0 0
M  V30 4 C 1.2726 2.2742 0.0 0
M  V30 5 C -1.3315 3.7825 0.0 0
M  V30 6 C 1.2608 3.7825 0.0 0
M  V30 7 C 2.557 1.5318 0.0 0
M  V30 8 N -0.0471 4.5367 0.0 0
M  V30 9 C -2.6395 4.5367 0.0 0
M  V30 10 C 2.5452 4.5367 0.0 0
M  V30 11 C 3.8414 2.2978 0.0 0
M  V30 12 N -3.9475 3.8061 0.0 0
M  V30 13 C 3.8296 3.8061 0.0 0
M  V30 14 C -3.9593 2.3213 0.0 0
M  V30 15 C -5.2555 4.5602 0.0 0
M  V30 16 C -5.2673 1.579 0.0 0
M  V30 17 C -3.4644 0.9309 0.0 0
M  V30 18 C -2.4981 2.5924 0.0 0
M  V30 19 C -6.5635 3.8296 0.0 0 CFG=2
M  V30 20 O -6.5752 2.3449 0.0 0
M  V30 21 C -7.8714 4.5838 0.0 0
M  V30 22 C -9.1794 3.8532 0.0 0
M  V30 23 C -7.8832 6.0921 0.0 0
M  V30 24 C -10.4874 4.6074 0.0 0
M  V30 25 C -9.1912 6.8463 0.0 0
M  V30 26 C -10.4992 6.1157 0.0 0
M  V30 END ATOM
M  V30 BEGIN BOND
M  V30 1 2 1 2
M  V30 2 1 2 3
M  V30 3 1 2 4
M  V30 4 1 3 5
M  V30 5 2 4 6
M  V30 6 1 4 7
M  V30 7 2 5 8
M  V30 8 1 5 9
M  V30 9 1 6 10
M  V30 10 2 7 11
M  V30 11 1 9 12
M  V30 12 2 10 13
M  V30 13 1 12 14
M  V30 14 1 12 15
M  V30 15 1 14 16
M  V30 16 1 14 17
M  V30 17 1 14 18
M  V30 18 1 15 19
M  V30 19 1 16 20
M  V30 20 1 19 21 CFG=3
M  V30 21 2 21 22
M  V30 22 1 21 23
M  V30 23 1 22 24
M  V30 24 2 23 25
M  V30 25 2 24 26
M  V30 26 1 6 8
M  V30 27 1 11 13
M  V30 28 1 19 20
M  V30 29 1 25 26
M  V30 END BOND
M  V30 BEGIN COLLECTION
M  V30 MDLV30/STERAC1 ATOMS=(1 19)
M  V30 END COLLECTION
M  V30 END CTAB
M  END
>  <Structure No>
543

>  <Catalog ID>
Z1120829637

>  <MW (desalted)>
349.426

>  <ClogP>
2.648

>  <HBD>
1

>  <TPSA>
53.930

>  <RotBonds>
3

>  <Target>
parp1

>  <fromRegid>


>  <Similarity>


$$$$
Compound 544
Actelion Java MolfileCreator 2.0

  0  0  0  0  0  0              0 V3000
M  V30 BEGIN CTAB
M  V30 COUNTS 25 27 0 0 0
M  V30 BEGIN ATOM
M  V30 1 Cl 0.0 0.0 0.0 0
M  V30 2 C 1.0993 1.0165 0.0 0
M  V30 3 C 0.9338 2.5178 0.0 0
M  V30 4 C 2.5533 0.721 0.0 0
M  V30 5 N 2.2932 3.1443 0.0 0
M  V30 6 C -0.3782 3.2743 0.0 0
M  V30 7 C 3.298 2.0331 0.0 0
M  V30 8 C 3.298 -0.5674 0.0 0
M  V30 9 O -0.39 4.7874 0.0 0
M  V30 10 N -1.6903 2.5414 0.0 0
M  V30 11 C 4.7874 2.045 0.0 0
M  V30 12 C 4.7874 -0.5555 0.0 0
M  V30 13 C -3.0024 3.298 0.0 0
M  V30 14 C 5.5321 0.7565 0.0 0
M  V30 15 C -4.3146 2.5651 0.0 0
M  V30 16 O -4.3264 1.0756 0.0 0
M  V30 17 N -5.6267 3.3216 0.0 0
M  V30 18 C -6.9388 2.5887 0.0 0
M  V30 19 C -6.9506 1.0993 0.0 0
M  V30 20 C -8.2509 3.3453 0.0 0
M  V30 21 C -8.2627 0.3664 0.0 0
M  V30 22 C -5.6621 0.3664 0.0 0
M  V30 23 C -9.563 2.6124 0.0 0
M  V30 24 C -9.5748 1.1229 0.0 0
M  V30 25 C -5.674 -1.1229 0.0 0
M  V30 END ATOM
M  V30 BEGIN BOND
M  V30 1 1 1 2
M  V30 2 2 2 3
M  V30 3 1 2 4
M  V30 4 1 3 5
M  V30 5 1 3 6
M  V30 6 2 4 7
M  V30 7 1 4 8
M  V30 8 2 6 9
M  V30 9 1 6 10
M  V30 10 1 7 11
M  V30 11 2 8 12
M  V30 12 1 10 13
M  V30 13 2 11 14
M  V30 14 1 13 15
M  V30 15 2 15 16
M  V30 16 1 15 17
M  V30 17 1 17 18
M  V30 18 2 18 19
M  V30 19 1 18 20
M  V30 20 1 19 21
M  V30 21 1 19 22
M  V30 22 2 20 23
M  V30 23 2 21 24
M  V30 24 1 22 25
M  V30 25 1 5 7
M  V30 26 1 12 14
M  V30 27 1 23 24
M  V30 END BOND
M  V30 END CTAB
M  END
>  <Structure No>
544

>  <Catalog ID>
Z463392016

>  <MW (desalted)>
355.818

>  <ClogP>
2.627

>  <HBD>
3

>  <TPSA>
73.990

>  <RotBonds>
5

>  <Target>
ATM

>  <fromRegid>


>  <Similarity>


$$$$
Compound 545
Actelion Java MolfileCreator 2.0

  0  0  0  0  0  0              0 V3000
M  V30 BEGIN CTAB
M  V30 COUNTS 28 30 0 0 0
M  V30 BEGIN ATOM
M  V30 1 Cl 0.0 0.0 0.0 0
M  V30 2 C 0.8716 1.225 0.0 0
M  V30 3 C 2.3441 1.0837 0.0 0
M  V30 4 C 0.2473 2.6032 0.0 0
M  V30 5 C 2.9448 -0.2709 0.0 0
M  V30 6 C 3.2157 2.3087 0.0 0
M  V30 7 C 1.119 3.8283 0.0 0
M  V30 8 O 2.0496 -1.4724 0.0 0
M  V30 9 N 4.4172 -0.4122 0.0 0
M  V30 10 C 2.5914 3.6869 0.0 0
M  V30 11 N 0.4947 5.2064 0.0 0
M  V30 12 C 1.3664 6.4315 0.0 0
M  V30 13 O 2.8388 6.2902 0.0 0
M  V30 14 C 0.7421 7.8097 0.0 0
M  V30 15 N 1.6137 9.0348 0.0 0
M  V30 16 C 3.0979 9.0465 0.0 0
M  V30 17 C 1.1426 10.4718 0.0 0
M  V30 18 S 3.5455 10.4836 0.0 0
M  V30 19 O 3.9696 7.845 0.0 0
M  V30 20 C -0.2944 10.943 0.0 0
M  V30 21 C 2.3441 11.3671 0.0 0
M  V30 22 C -1.4135 9.9535 0.0 0
M  V30 23 C -0.6125 12.4154 0.0 0
M  V30 24 C 2.3323 12.8748 0.0 0
M  V30 25 C -2.8506 10.4247 0.0 0
M  V30 26 C -2.0496 12.8866 0.0 0
M  V30 27 C -3.1686 11.8971 0.0 0
M  V30 28 F -4.6057 12.3683 0.0 0
M  V30 END ATOM
M  V30 BEGIN BOND
M  V30 1 1 1 2
M  V30 2 2 2 3
M  V30 3 1 2 4
M  V30 4 1 3 5
M  V30 5 1 3 6
M  V30 6 2 4 7
M  V30 7 2 5 8
M  V30 8 1 5 9
M  V30 9 2 6 10
M  V30 10 1 7 11
M  V30 11 1 11 12
M  V30 12 2 12 13
M  V30 13 1 12 14
M  V30 14 1 14 15
M  V30 15 1 15 16
M  V30 16 1 15 17
M  V30 17 1 16 18
M  V30 18 2 16 19
M  V30 19 1 17 20
M  V30 20 2 17 21
M  V30 21 2 20 22
M  V30 22 1 20 23
M  V30 23 1 21 24
M  V30 24 1 22 25
M  V30 25 2 23 26
M  V30 26 2 25 27
M  V30 27 1 27 28
M  V30 28 1 7 10
M  V30 29 1 18 21
M  V30 30 1 26 27
M  V30 END BOND
M  V30 END CTAB
M  END
>  <Structure No>
545

>  <Catalog ID>
Z443922120

>  <MW (desalted)>
419.857

>  <ClogP>
1.619

>  <HBD>
2

>  <TPSA>
92.500

>  <RotBonds>
5

>  <Target>
parp14

>  <fromRegid>


>  <Similarity>


$$$$
Compound 546
Actelion Java MolfileCreator 2.0

  0  0  0  0  0  0              0 V3000
M  V30 BEGIN CTAB
M  V30 COUNTS 23 25 0 0 0
M  V30 BEGIN ATOM
M  V30 1 O 0.0 0.0 0.0 0
M  V30 2 C -0.0117 1.5072 0.0 0
M  V30 3 N -1.3188 2.2727 0.0 0
M  V30 4 C 1.2717 2.2727 0.0 0
M  V30 5 C -1.3306 3.7799 0.0 0
M  V30 6 C 1.2599 3.7799 0.0 0
M  V30 7 C 2.5553 1.5308 0.0 0
M  V30 8 C -2.6377 4.5336 0.0 0
M  V30 9 C -0.0471 4.5336 0.0 0
M  V30 10 C 2.5435 4.5336 0.0 0
M  V30 11 C 3.8388 2.2962 0.0 0
M  V30 12 O -2.6495 6.0409 0.0 0
M  V30 13 N -3.9448 3.8035 0.0 0
M  V30 14 C 3.8271 3.8035 0.0 0
M  V30 15 C -5.2519 4.5571 0.0 0 CFG=2
M  V30 16 C -6.559 3.8271 0.0 0
M  V30 17 C -5.2637 6.0644 0.0 0
M  V30 18 C -7.9368 4.4512 0.0 0
M  V30 19 C -6.7239 2.3551 0.0 0
M  V30 20 N -8.9495 3.356 0.0 0
M  V30 21 C -8.2547 5.9231 0.0 0
M  V30 22 N -8.1958 2.0607 0.0 0
M  V30 23 C -10.445 3.5209 0.0 0
M  V30 END ATOM
M  V30 BEGIN BOND
M  V30 1 2 1 2
M  V30 2 1 2 3
M  V30 3 1 2 4
M  V30 4 1 3 5
M  V30 5 2 4 6
M  V30 6 1 4 7
M  V30 7 1 5 8
M  V30 8 2 5 9
M  V30 9 1 6 10
M  V30 10 2 7 11
M  V30 11 2 8 12
M  V30 12 1 8 13
M  V30 13 2 10 14
M  V30 14 1 15 13 CFG=3
M  V30 15 1 15 16
M  V30 16 1 15 17
M  V30 17 2 16 18
M  V30 18 1 16 19
M  V30 19 1 18 20
M  V30 20 1 18 21
M  V30 21 2 19 22
M  V30 22 1 20 23
M  V30 23 1 6 9
M  V30 24 1 11 14
M  V30 25 1 20 22
M  V30 END BOND
M  V30 BEGIN COLLECTION
M  V30 MDLV30/STERAC1 ATOMS=(1 15)
M  V30 END COLLECTION
M  V30 END CTAB
M  END
>  <Structure No>
546

>  <Catalog ID>
Z395943628

>  <MW (desalted)>
310.350

>  <ClogP>
0.726

>  <HBD>
2

>  <TPSA>
76.020

>  <RotBonds>
3

>  <Target>
parp15, Tankyrase1

>  <fromRegid>


>  <Similarity>


$$$$
Compound 547
Actelion Java MolfileCreator 2.0

  0  0  0  0  0  0              0 V3000
M  V30 BEGIN CTAB
M  V30 COUNTS 25 27 0 0 0
M  V30 BEGIN ATOM
M  V30 1 O 0.0 0.0 0.0 0
M  V30 2 C -0.0117 1.5047 0.0 0
M  V30 3 N -1.3166 2.2688 0.0 0
M  V30 4 C 1.2696 2.2688 0.0 0
M  V30 5 C -1.3283 3.7735 0.0 0
M  V30 6 C 1.2578 3.7735 0.0 0
M  V30 7 C 2.5509 1.5282 0.0 0
M  V30 8 N -0.047 4.5258 0.0 0
M  V30 9 C -2.6332 4.5258 0.0 0
M  V30 10 C 2.5392 4.5258 0.0 0
M  V30 11 C 3.8323 2.2923 0.0 0
M  V30 12 C -3.9381 3.797 0.0 0
M  V30 13 C 3.8205 3.797 0.0 0
M  V30 14 C -5.2429 4.5494 0.0 0
M  V30 15 O -5.2547 6.0541 0.0 0
M  V30 16 N -6.5478 3.8205 0.0 0
M  V30 17 C -7.8527 4.5729 0.0 0
M  V30 18 C -7.8644 6.0776 0.0 0
M  V30 19 C -9.1575 3.844 0.0 0
M  V30 20 C -9.1693 6.8417 0.0 0
M  V30 21 C -10.4624 4.5964 0.0 0
M  V30 22 N -10.4742 6.1011 0.0 0
M  V30 23 C -11.779 6.8652 0.0 0
M  V30 24 O -11.7908 8.3699 0.0 0
M  V30 25 C -13.0839 6.1246 0.0 0
M  V30 END ATOM
M  V30 BEGIN BOND
M  V30 1 2 1 2
M  V30 2 1 2 3
M  V30 3 1 2 4
M  V30 4 1 3 5
M  V30 5 2 4 6
M  V30 6 1 4 7
M  V30 7 2 5 8
M  V30 8 1 5 9
M  V30 9 1 6 10
M  V30 10 2 7 11
M  V30 11 1 9 12
M  V30 12 2 10 13
M  V30 13 1 12 14
M  V30 14 2 14 15
M  V30 15 1 14 16
M  V30 16 1 16 17
M  V30 17 1 17 18
M  V30 18 1 17 19
M  V30 19 1 18 20
M  V30 20 1 19 21
M  V30 21 1 20 22
M  V30 22 1 22 23
M  V30 23 2 23 24
M  V30 24 1 23 25
M  V30 25 1 6 8
M  V30 26 1 11 13
M  V30 27 1 21 22
M  V30 END BOND
M  V30 END CTAB
M  END
>  <Structure No>
547

>  <Catalog ID>
Z90652384

>  <MW (desalted)>
342.392

>  <ClogP>
-2.160

>  <HBD>
2

>  <TPSA>
90.870

>  <RotBonds>
4

>  <Target>
parp2

>  <fromRegid>


>  <Similarity>


$$$$
Compound 548
Actelion Java MolfileCreator 2.0

  0  0  0  0  0  0              0 V3000
M  V30 BEGIN CTAB
M  V30 COUNTS 23 25 0 0 0
M  V30 BEGIN ATOM
M  V30 1 O 0.0 0.0 0.0 0
M  V30 2 C -0.0118 1.5138 0.0 0
M  V30 3 N -1.3246 2.2707 0.0 0
M  V30 4 C 1.2773 2.2707 0.0 0
M  V30 5 C -2.6374 1.5375 0.0 0
M  V30 6 C 2.5664 1.5375 0.0 0
M  V30 7 C 1.2654 3.7846 0.0 0
M  V30 8 C -3.9502 2.2944 0.0 0
M  V30 9 C 3.8555 2.2944 0.0 0
M  V30 10 C 2.5546 0.0473 0.0 0
M  V30 11 C 2.5546 4.5533 0.0 0
M  V30 12 N -5.263 1.5611 0.0 0
M  V30 13 N 3.8437 3.8082 0.0 0
M  V30 14 C 5.1447 1.5611 0.0 0
M  V30 15 C 3.8437 -0.6859 0.0 0
M  V30 16 O 2.5427 6.0672 0.0 0
M  V30 17 C -5.2748 0.0709 0.0 0 CFG=2
M  V30 18 C -6.5757 2.318 0.0 0
M  V30 19 C 5.1329 0.0709 0.0 0
M  V30 20 C -6.5876 -0.6623 0.0 0
M  V30 21 C -3.9856 -0.6623 0.0 0
M  V30 22 C -7.8885 1.5848 0.0 0
M  V30 23 C -7.9004 0.0946 0.0 0
M  V30 END ATOM
M  V30 BEGIN BOND
M  V30 1 2 1 2
M  V30 2 1 2 3
M  V30 3 1 2 4
M  V30 4 1 3 5
M  V30 5 1 4 6
M  V30 6 2 4 7
M  V30 7 1 5 8
M  V30 8 1 6 9
M  V30 9 2 6 10
M  V30 10 1 7 11
M  V30 11 1 8 12
M  V30 12 1 9 13
M  V30 13 2 9 14
M  V30 14 1 10 15
M  V30 15 1 11 16
M  V30 16 1 12 17
M  V30 17 1 12 18
M  V30 18 1 14 19
M  V30 19 1 17 20
M  V30 20 1 17 21 CFG=1
M  V30 21 1 18 22
M  V30 22 1 20 23
M  V30 23 2 11 13
M  V30 24 2 15 19
M  V30 25 1 22 23
M  V30 END BOND
M  V30 BEGIN COLLECTION
M  V30 MDLV30/STERAC1 ATOMS=(1 17)
M  V30 END COLLECTION
M  V30 END CTAB
M  END
>  <Structure No>
548

>  <Catalog ID>
Z451443816

>  <MW (desalted)>
313.394

>  <ClogP>
3.828

>  <HBD>
2

>  <TPSA>
65.460

>  <RotBonds>
4

>  <Target>
CHK1

>  <fromRegid>


>  <Similarity>


$$$$
Compound 549
Actelion Java MolfileCreator 2.0

  0  0  0  0  0  0              0 V3000
M  V30 BEGIN CTAB
M  V30 COUNTS 22 24 0 0 0
M  V30 BEGIN ATOM
M  V30 1 O 0.0 0.0 0.0 0
M  V30 2 C 0.4494 1.4428 0.0 0
M  V30 3 N -0.4494 2.6728 0.0 0
M  V30 4 C 1.8686 1.9159 0.0 0
M  V30 5 C 0.4257 3.9028 0.0 0
M  V30 6 C -1.9632 2.6846 0.0 0
M  V30 7 C 1.8568 3.4297 0.0 0
M  V30 8 C 3.1577 1.1708 0.0 0
M  V30 9 O -0.0473 5.3457 0.0 0
M  V30 10 C 3.1459 4.1866 0.0 0
M  V30 11 C 4.4468 1.9277 0.0 0
M  V30 12 C 4.435 3.4534 0.0 0
M  V30 13 C 5.7359 1.1826 0.0 0
M  V30 14 O 7.0251 1.9395 0.0 0
M  V30 15 N 5.7241 -0.3074 0.0 0
M  V30 16 C 7.0132 -1.0525 0.0 0
M  V30 17 C 7.0014 -2.5427 0.0 0
M  V30 18 C 8.2905 -3.276 0.0 0
M  V30 19 C 5.6886 -3.276 0.0 0
M  V30 20 C 8.2787 -4.7661 0.0 0
M  V30 21 C 5.6768 -4.7661 0.0 0
M  V30 22 C 6.9659 -5.5112 0.0 0
M  V30 END ATOM
M  V30 BEGIN BOND
M  V30 1 2 1 2
M  V30 2 1 2 3
M  V30 3 1 2 4
M  V30 4 1 3 5
M  V30 5 1 3 6
M  V30 6 2 4 7
M  V30 7 1 4 8
M  V30 8 2 5 9
M  V30 9 1 7 10
M  V30 10 2 8 11
M  V30 11 2 10 12
M  V30 12 1 11 13
M  V30 13 2 13 14
M  V30 14 1 13 15
M  V30 15 1 15 16
M  V30 16 1 16 17
M  V30 17 2 17 18
M  V30 18 1 17 19
M  V30 19 1 18 20
M  V30 20 2 19 21
M  V30 21 2 20 22
M  V30 22 1 5 7
M  V30 23 1 11 12
M  V30 24 1 21 22
M  V30 END BOND
M  V30 END CTAB
M  END
>  <Structure No>
549

>  <Catalog ID>
Z27749066

>  <MW (desalted)>
294.305

>  <ClogP>
2.655

>  <HBD>
1

>  <TPSA>
66.480

>  <RotBonds>
3

>  <Target>
Poly [ADP-ribose] polymerase-1

>  <fromRegid>
CHEMBL611975

>  <Similarity>
0.91

$$$$
Compound 550
Actelion Java MolfileCreator 2.0

  0  0  0  0  0  0              0 V3000
M  V30 BEGIN CTAB
M  V30 COUNTS 25 28 0 0 0
M  V30 BEGIN ATOM
M  V30 1 S 0.0 0.0 0.0 0
M  V30 2 C -0.7716 -1.2939 0.0 0
M  V30 3 C -1.0208 1.1277 0.0 0
M  V30 4 C -0.1661 -2.659 0.0 0
M  V30 5 C -2.2554 -0.9734 0.0 0
M  V30 6 C -2.4097 0.5223 0.0 0
M  V30 7 N -0.9378 -3.953 0.0 0
M  V30 8 N 1.2939 -2.9558 0.0 0
M  V30 9 N 0.0593 -5.057 0.0 0
M  V30 10 C 1.4363 -4.4397 0.0 0
M  V30 11 C 2.3979 -1.9349 0.0 0
M  V30 12 S 2.7303 -5.1757 0.0 0
M  V30 13 C 2.0774 -0.451 0.0 0
M  V30 14 C 2.7184 -6.6714 0.0 0
M  V30 15 C 4.0123 -7.4074 0.0 0
M  V30 16 N 5.3062 -6.6477 0.0 0
M  V30 17 N 4.0004 -8.9031 0.0 0
M  V30 18 C 6.6002 -7.3837 0.0 0
M  V30 19 C 5.2944 -9.651 0.0 0
M  V30 20 C 6.5883 -8.8794 0.0 0
M  V30 21 C 7.8941 -6.6239 0.0 0
M  V30 22 O 5.2825 -11.1467 0.0 0
M  V30 23 C 7.8822 -9.6273 0.0 0
M  V30 24 C 9.188 -7.3599 0.0 0
M  V30 25 C 9.1762 -8.8556 0.0 0
M  V30 END ATOM
M  V30 BEGIN BOND
M  V30 1 1 1 2
M  V30 2 1 1 3
M  V30 3 1 2 4
M  V30 4 2 2 5
M  V30 5 2 3 6
M  V30 6 2 4 7
M  V30 7 1 4 8
M  V30 8 1 7 9
M  V30 9 1 8 10
M  V30 10 1 8 11
M  V30 11 1 10 12
M  V30 12 1 11 13
M  V30 13 1 12 14
M  V30 14 1 14 15
M  V30 15 2 15 16
M  V30 16 1 15 17
M  V30 17 1 16 18
M  V30 18 1 17 19
M  V30 19 2 18 20
M  V30 20 1 18 21
M  V30 21 2 19 22
M  V30 22 1 20 23
M  V30 23 2 21 24
M  V30 24 2 23 25
M  V30 25 1 5 6
M  V30 26 2 9 10
M  V30 27 1 19 20
M  V30 28 1 24 25
M  V30 END BOND
M  V30 END CTAB
M  END
>  <Structure No>
550

>  <Catalog ID>
Z14376268

>  <MW (desalted)>
369.464

>  <ClogP>
2.008

>  <HBD>
1

>  <TPSA>
72.170

>  <RotBonds>
5

>  <Target>
parp10

>  <fromRegid>


>  <Similarity>


$$$$
Compound 551
Actelion Java MolfileCreator 2.0

  0  0  0  0  0  0              0 V3000
M  V30 BEGIN CTAB
M  V30 COUNTS 30 31 0 0 0
M  V30 BEGIN ATOM
M  V30 1 Cl 0.0 0.0 0.0 0
M  V30 2 C -1.001 -1.1291 0.0 0
M  V30 3 C -0.5238 -2.5376 0.0 0
M  V30 4 C -2.491 -0.8381 0.0 0
M  V30 5 C -1.5248 -3.6667 0.0 0
M  V30 6 C -3.4921 -1.9672 0.0 0
M  V30 7 N -1.0476 -5.0752 0.0 0
M  V30 8 C -3.0148 -3.3757 0.0 0
M  V30 9 C -2.0487 -6.2043 0.0 0
M  V30 10 O -4.0159 -4.5048 0.0 0
M  V30 11 O -3.5386 -5.9133 0.0 0
M  V30 12 C -1.5714 -7.6128 0.0 0
M  V30 13 C -5.5058 -4.2138 0.0 0
M  V30 14 N -0.1047 -7.8805 0.0 0
M  V30 15 C 0.873 -6.7281 0.0 0
M  V30 16 C 0.3724 -9.289 0.0 0
M  V30 17 C 2.3397 -6.9958 0.0 0
M  V30 18 O 2.8169 -8.4043 0.0 0
M  V30 19 N 3.3175 -5.8434 0.0 0
M  V30 20 C 4.7841 -6.1111 0.0 0
M  V30 21 O 5.2614 -7.5196 0.0 0
M  V30 22 N 5.7619 -4.9587 0.0 0
M  V30 23 C 7.2286 -5.2265 0.0 0
M  V30 24 C 7.7059 -6.635 0.0 0
M  V30 25 C 8.2064 -4.0741 0.0 0
M  V30 26 C 9.1726 -6.9027 0.0 0
M  V30 27 C 6.7048 -7.7641 0.0 0
M  V30 28 C 9.6731 -4.3418 0.0 0
M  V30 29 C 10.1504 -5.7503 0.0 0
M  V30 30 C 9.6498 -8.3112 0.0 0
M  V30 END ATOM
M  V30 BEGIN BOND
M  V30 1 1 1 2
M  V30 2 2 2 3
M  V30 3 1 2 4
M  V30 4 1 3 5
M  V30 5 2 4 6
M  V30 6 1 5 7
M  V30 7 2 5 8
M  V30 8 1 7 9
M  V30 9 1 8 10
M  V30 10 2 9 11
M  V30 11 1 9 12
M  V30 12 1 10 13
M  V30 13 1 12 14
M  V30 14 1 14 15
M  V30 15 1 14 16
M  V30 16 1 15 17
M  V30 17 2 17 18
M  V30 18 1 17 19
M  V30 19 1 19 20
M  V30 20 2 20 21
M  V30 21 1 20 22
M  V30 22 1 22 23
M  V30 23 1 23 24
M  V30 24 1 23 25
M  V30 25 1 24 26
M  V30 26 1 24 27
M  V30 27 1 25 28
M  V30 28 1 26 29
M  V30 29 1 26 30
M  V30 30 1 6 8
M  V30 31 1 28 29
M  V30 END BOND
M  V30 END CTAB
M  END
>  <Structure No>
551

>  <Catalog ID>
Z46393223

>  <MW (desalted)>
438.948

>  <ClogP>
4.294

>  <HBD>
3

>  <TPSA>
99.770

>  <RotBonds>
7

>  <Target>
ATM

>  <fromRegid>


>  <Similarity>


$$$$
Compound 552
Actelion Java MolfileCreator 2.0

  0  0  0  0  0  0              0 V3000
M  V30 BEGIN CTAB
M  V30 COUNTS 21 23 0 0 0
M  V30 BEGIN ATOM
M  V30 1 O 0.0 0.0 0.0 0
M  V30 2 C 0.4491 1.4419 0.0 0
M  V30 3 N -0.4491 2.6711 0.0 0
M  V30 4 C 1.8674 1.9146 0.0 0
M  V30 5 C 0.4254 3.9002 0.0 0
M  V30 6 C -1.9619 2.6829 0.0 0
M  V30 7 C 1.8555 3.4275 0.0 0
M  V30 8 C 3.1556 1.17 0.0 0
M  V30 9 O -0.0472 5.3422 0.0 0
M  V30 10 C 3.1438 4.1957 0.0 0
M  V30 11 C 4.4439 1.9383 0.0 0
M  V30 12 C 4.4321 3.4629 0.0 0
M  V30 13 C 5.7322 1.1937 0.0 0
M  V30 14 O 5.7204 -0.2954 0.0 0
M  V30 15 N 7.0205 1.9619 0.0 0
M  V30 16 C 8.3088 1.2173 0.0 0
M  V30 17 C 9.5971 1.9856 0.0 0
M  V30 18 C 8.297 -0.2718 0.0 0
M  V30 19 C 10.8853 1.241 0.0 0
M  V30 20 C 9.5852 -1.0164 0.0 0
M  V30 21 C 10.8735 -0.2482 0.0 0
M  V30 END ATOM
M  V30 BEGIN BOND
M  V30 1 2 1 2
M  V30 2 1 2 3
M  V30 3 1 2 4
M  V30 4 1 3 5
M  V30 5 1 3 6
M  V30 6 2 4 7
M  V30 7 1 4 8
M  V30 8 2 5 9
M  V30 9 1 7 10
M  V30 10 2 8 11
M  V30 11 2 10 12
M  V30 12 1 11 13
M  V30 13 2 13 14
M  V30 14 1 13 15
M  V30 15 1 15 16
M  V30 16 1 16 17
M  V30 17 1 16 18
M  V30 18 1 17 19
M  V30 19 1 18 20
M  V30 20 1 19 21
M  V30 21 1 5 7
M  V30 22 1 11 12
M  V30 23 1 20 21
M  V30 END BOND
M  V30 END CTAB
M  END
>  <Structure No>
552

>  <Catalog ID>
Z27759192

>  <MW (desalted)>
286.326

>  <ClogP>
2.718

>  <HBD>
1

>  <TPSA>
66.480

>  <RotBonds>
2

>  <Target>
Poly [ADP-ribose] polymerase-1

>  <fromRegid>
CHEMBL597888

>  <Similarity>
0.91

$$$$
Compound 553
Actelion Java MolfileCreator 2.0

  0  0  0  0  0  0              0 V3000
M  V30 BEGIN CTAB
M  V30 COUNTS 30 34 0 0 0
M  V30 BEGIN ATOM
M  V30 1 S 0.0 0.0 0.0 0
M  V30 2 C -0.7553 1.3101 0.0 0
M  V30 3 C 1.4517 0.3186 0.0 0
M  V30 4 N 0.236 2.4314 0.0 0
M  V30 5 N -2.2543 1.4753 0.0 0
M  V30 6 C 1.5934 1.8176 0.0 0
M  V30 7 C -3.1514 0.2714 0.0 0
M  V30 8 C 2.8799 2.5848 0.0 0
M  V30 9 O -2.5494 -1.0858 0.0 0
M  V30 10 C -4.6504 0.4367 0.0 0
M  V30 11 C 4.1664 1.8412 0.0 0
M  V30 12 C 2.8681 4.0956 0.0 0
M  V30 13 C -5.5474 -0.7672 0.0 0
M  V30 14 C 5.453 2.6084 0.0 0
M  V30 15 C 4.1546 4.8628 0.0 0
M  V30 16 N -4.9454 -2.1245 0.0 0
M  V30 17 C -7.0464 -0.6019 0.0 0
M  V30 18 O 6.7395 1.8648 0.0 0
M  V30 19 C 5.4412 4.1192 0.0 0
M  V30 20 N -5.8425 -3.3284 0.0 0
M  V30 21 C -7.9434 -1.8058 0.0 0
M  V30 22 C -7.672 0.779 0.0 0
M  V30 23 C 8.026 2.632 0.0 0
M  V30 24 O 6.7277 4.8864 0.0 0
M  V30 25 C -7.3415 -3.1632 0.0 0
M  V30 26 C -9.4424 -1.6406 0.0 0
M  V30 27 C -9.1709 0.9442 0.0 0
M  V30 28 C 8.0142 4.1428 0.0 0
M  V30 29 O -8.2385 -4.3671 0.0 0
M  V30 30 C -10.068 -0.2596 0.0 0
M  V30 END ATOM
M  V30 BEGIN BOND
M  V30 1 1 1 2
M  V30 2 1 1 3
M  V30 3 2 2 4
M  V30 4 1 2 5
M  V30 5 2 3 6
M  V30 6 1 5 7
M  V30 7 1 6 8
M  V30 8 2 7 9
M  V30 9 1 7 10
M  V30 10 2 8 11
M  V30 11 1 8 12
M  V30 12 1 10 13
M  V30 13 1 11 14
M  V30 14 2 12 15
M  V30 15 2 13 16
M  V30 16 1 13 17
M  V30 17 1 14 18
M  V30 18 2 14 19
M  V30 19 1 16 20
M  V30 20 2 17 21
M  V30 21 1 17 22
M  V30 22 1 18 23
M  V30 23 1 19 24
M  V30 24 1 20 25
M  V30 25 1 21 26
M  V30 26 2 22 27
M  V30 27 1 23 28
M  V30 28 2 25 29
M  V30 29 2 26 30
M  V30 30 1 4 6
M  V30 31 1 15 19
M  V30 32 1 21 25
M  V30 33 1 24 28
M  V30 34 1 27 30
M  V30 END BOND
M  V30 END CTAB
M  END
>  <Structure No>
553

>  <Catalog ID>
Z28671689

>  <MW (desalted)>
420.441

>  <ClogP>
2.047

>  <HBD>
2

>  <TPSA>
101.910

>  <RotBonds>
4

>  <Target>
Tankyrase1

>  <fromRegid>


>  <Similarity>


$$$$
Compound 554
Actelion Java MolfileCreator 2.0

  0  0  0  0  0  0              0 V3000
M  V30 BEGIN CTAB
M  V30 COUNTS 30 32 0 0 0
M  V30 BEGIN ATOM
M  V30 1 S 0.0 0.0 0.0 0
M  V30 2 O 0.7436 1.3101 0.0 0
M  V30 3 O -0.7554 -1.2865 0.0 0
M  V30 4 N -1.3101 0.7554 0.0 0
M  V30 5 C 1.2865 -0.7436 0.0 0
M  V30 6 C -1.3219 2.2662 0.0 0
M  V30 7 C -2.6321 3.0216 0.0 0 CFG=2
M  V30 8 N -2.6439 4.5325 0.0 0
M  V30 9 C -3.9423 2.2898 0.0 0
M  V30 10 C -1.3574 5.2879 0.0 0
M  V30 11 C -3.9541 5.2879 0.0 0
M  V30 12 C -5.2525 3.0453 0.0 0
M  V30 13 O -1.3692 6.7988 0.0 0
M  V30 14 N -0.0708 4.5561 0.0 0
M  V30 15 C -5.2643 4.5561 0.0 0
M  V30 16 C 1.2157 5.3115 0.0 0
M  V30 17 C 2.5023 4.5797 0.0 0
M  V30 18 C 1.2039 6.8224 0.0 0
M  V30 19 N 2.4905 3.0925 0.0 0
M  V30 20 C 3.7889 5.3351 0.0 0
M  V30 21 C 2.4905 7.5778 0.0 0
M  V30 22 C 3.6944 2.219 0.0 0
M  V30 23 C 1.2629 2.219 0.0 0
M  V30 24 C 3.7771 6.846 0.0 0
M  V30 25 C 2.4787 9.0886 0.0 0
M  V30 26 C 3.2223 0.8026 0.0 0
M  V30 27 C 1.7115 0.8026 0.0 0
M  V30 28 F 2.4669 10.5995 0.0 0
M  V30 29 F 3.9659 9.1004 0.0 0
M  V30 30 F 0.9678 9.1004 0.0 0
M  V30 END ATOM
M  V30 BEGIN BOND
M  V30 1 2 1 2
M  V30 2 2 1 3
M  V30 3 1 1 4
M  V30 4 1 1 5
M  V30 5 1 4 6
M  V30 6 1 7 6 CFG=1
M  V30 7 1 7 8
M  V30 8 1 7 9
M  V30 9 1 8 10
M  V30 10 1 8 11
M  V30 11 1 9 12
M  V30 12 2 10 13
M  V30 13 1 10 14
M  V30 14 1 11 15
M  V30 15 1 14 16
M  V30 16 2 16 17
M  V30 17 1 16 18
M  V30 18 1 17 19
M  V30 19 1 17 20
M  V30 20 2 18 21
M  V30 21 1 19 22
M  V30 22 1 19 23
M  V30 23 2 20 24
M  V30 24 1 21 25
M  V30 25 1 22 26
M  V30 26 1 23 27
M  V30 27 1 25 28
M  V30 28 1 25 29
M  V30 29 1 25 30
M  V30 30 1 12 15
M  V30 31 1 21 24
M  V30 32 1 26 27
M  V30 END BOND
M  V30 BEGIN COLLECTION
M  V30 MDLV30/STERAC1 ATOMS=(1 7)
M  V30 END COLLECTION
M  V30 END CTAB
M  END
>  <Structure No>
554

>  <Catalog ID>
Z411102092

>  <MW (desalted)>
448.503

>  <ClogP>
3.271

>  <HBD>
2

>  <TPSA>
81.750

>  <RotBonds>
5

>  <Target>
ATM

>  <fromRegid>


>  <Similarity>


$$$$
Compound 555
Actelion Java MolfileCreator 2.0

  0  0  0  0  0  0              0 V3000
M  V30 BEGIN CTAB
M  V30 COUNTS 26 28 0 0 0
M  V30 BEGIN ATOM
M  V30 1 Cl 0.0 0.0 0.0 0
M  V30 2 C 1.296 -0.7491 0.0 0
M  V30 3 C 2.5921 0.0237 0.0 0
M  V30 4 C 1.2841 -2.2473 0.0 0
M  V30 5 C 3.8882 -0.7253 0.0 0
M  V30 6 C 2.5802 -2.9845 0.0 0
M  V30 7 C 3.8763 -2.2235 0.0 0
M  V30 8 S 5.1724 -2.9607 0.0 0
M  V30 9 O 4.3995 -4.2568 0.0 0
M  V30 10 O 5.9096 -1.6409 0.0 0
M  V30 11 C 6.4685 -3.6979 0.0 0
M  V30 12 C 7.7645 -2.9369 0.0 0
M  V30 13 N 9.0606 -3.6742 0.0 0
M  V30 14 C 10.3567 -2.9132 0.0 0
M  V30 15 O 10.3448 -1.3912 0.0 0
M  V30 16 C 11.6528 -3.6504 0.0 0
M  V30 17 N 11.6409 -5.1486 0.0 0
M  V30 18 C 12.9489 -2.8894 0.0 0
M  V30 19 C 12.937 -5.8977 0.0 0
M  V30 20 C 14.2449 -3.6266 0.0 0
M  V30 21 O 12.9251 -7.3959 0.0 0
M  V30 22 C 14.233 -5.1248 0.0 0
M  V30 23 C 15.541 -2.8656 0.0 0
M  V30 24 C 15.5291 -5.8739 0.0 0
M  V30 25 C 16.8371 -3.6028 0.0 0
M  V30 26 C 16.8252 -5.101 0.0 0
M  V30 END ATOM
M  V30 BEGIN BOND
M  V30 1 1 1 2
M  V30 2 2 2 3
M  V30 3 1 2 4
M  V30 4 1 3 5
M  V30 5 2 4 6
M  V30 6 2 5 7
M  V30 7 1 7 8
M  V30 8 2 8 9
M  V30 9 2 8 10
M  V30 10 1 8 11
M  V30 11 1 11 12
M  V30 12 1 12 13
M  V30 13 1 13 14
M  V30 14 2 14 15
M  V30 15 1 14 16
M  V30 16 1 16 17
M  V30 17 2 16 18
M  V30 18 1 17 19
M  V30 19 1 18 20
M  V30 20 2 19 21
M  V30 21 1 19 22
M  V30 22 1 20 23
M  V30 23 1 22 24
M  V30 24 2 23 25
M  V30 25 2 24 26
M  V30 26 1 6 7
M  V30 27 2 20 22
M  V30 28 1 25 26
M  V30 END BOND
M  V30 END CTAB
M  END
>  <Structure No>
555

>  <Catalog ID>
Z811206498

>  <MW (desalted)>
390.841

>  <ClogP>
1.796

>  <HBD>
2

>  <TPSA>
92.340

>  <RotBonds>
5

>  <Target>
parp3

>  <fromRegid>


>  <Similarity>


$$$$
Compound 556
Actelion Java MolfileCreator 2.0

  0  0  0  0  0  0              0 V3000
M  V30 BEGIN CTAB
M  V30 COUNTS 27 28 0 0 0
M  V30 BEGIN ATOM
M  V30 1 F 0.0 0.0 0.0 0
M  V30 2 C -1.3066 0.7534 0.0 0
M  V30 3 F -2.06 -0.5297 0.0 0
M  V30 4 F -0.5768 2.06 0.0 0
M  V30 5 C -2.6133 1.5068 0.0 0
M  V30 6 C -3.92 0.7651 0.0 0
M  V30 7 C -2.6251 3.0136 0.0 0
M  V30 8 C -5.2267 1.5185 0.0 0
M  V30 9 C -3.9318 3.767 0.0 0
M  V30 10 N -6.5333 0.7769 0.0 0
M  V30 11 C -5.2384 3.0253 0.0 0
M  V30 12 C -7.84 1.5303 0.0 0
M  V30 13 O -7.8518 3.0371 0.0 0
M  V30 14 N -9.1467 0.7887 0.0 0
M  V30 15 C -10.4534 1.5421 0.0 0
M  V30 16 C -11.7601 0.8004 0.0 0
M  V30 17 O -11.7718 -0.6827 0.0 0
M  V30 18 N -13.0667 1.5538 0.0 0
M  V30 19 C -14.3734 0.8122 0.0 0
M  V30 20 C -14.3852 -0.6709 0.0 0
M  V30 21 C -15.6801 1.5656 0.0 0
M  V30 22 O -13.1021 -1.4008 0.0 0
M  V30 23 C -15.6919 -1.4008 0.0 0
M  V30 24 C -16.9868 0.824 0.0 0
M  V30 25 C -13.1138 -2.8841 0.0 0
M  V30 26 C -16.9985 -0.6474 0.0 0
M  V30 27 C -18.2934 1.5774 0.0 0
M  V30 END ATOM
M  V30 BEGIN BOND
M  V30 1 1 1 2
M  V30 2 1 2 3
M  V30 3 1 2 4
M  V30 4 1 2 5
M  V30 5 2 5 6
M  V30 6 1 5 7
M  V30 7 1 6 8
M  V30 8 2 7 9
M  V30 9 1 8 10
M  V30 10 2 8 11
M  V30 11 1 10 12
M  V30 12 2 12 13
M  V30 13 1 12 14
M  V30 14 1 14 15
M  V30 15 1 15 16
M  V30 16 2 16 17
M  V30 17 1 16 18
M  V30 18 1 18 19
M  V30 19 2 19 20
M  V30 20 1 19 21
M  V30 21 1 20 22
M  V30 22 1 20 23
M  V30 23 2 21 24
M  V30 24 1 22 25
M  V30 25 2 23 26
M  V30 26 1 24 27
M  V30 27 1 9 11
M  V30 28 1 24 26
M  V30 END BOND
M  V30 END CTAB
M  END
>  <Structure No>
556

>  <Catalog ID>
Z409670212

>  <MW (desalted)>
381.349

>  <ClogP>
3.421

>  <HBD>
3

>  <TPSA>
79.460

>  <RotBonds>
6

>  <Target>
ATM

>  <fromRegid>


>  <Similarity>


$$$$
Compound 557
Actelion Java MolfileCreator 2.0

  0  0  0  0  0  0              0 V3000
M  V30 BEGIN CTAB
M  V30 COUNTS 31 34 0 0 0
M  V30 BEGIN ATOM
M  V30 1 S 0.0 0.0 0.0 0
M  V30 2 C -1.3135 0.7573 0.0 0
M  V30 3 C 1.2898 0.7573 0.0 0
M  V30 4 N -2.627 0.0236 0.0 0
M  V30 5 N -1.3253 2.272 0.0 0
M  V30 6 C 2.5797 0.0236 0.0 0
M  V30 7 C -3.9406 0.781 0.0 0
M  V30 8 C -2.6389 3.0294 0.0 0
M  V30 9 O 2.5679 -1.4673 0.0 0
M  V30 10 N 3.8696 0.781 0.0 0
M  V30 11 N -5.3843 0.3313 0.0 0
M  V30 12 C -3.9524 2.2957 0.0 0
M  V30 13 O -2.6507 4.5441 0.0 0
M  V30 14 C 5.1594 0.0473 0.0 0
M  V30 15 N -6.2836 1.562 0.0 0
M  V30 16 C -5.8576 -1.0886 0.0 0
M  V30 17 C -5.3961 2.769 0.0 0
M  V30 18 C 5.1476 -1.4437 0.0 0
M  V30 19 C 6.4493 0.8046 0.0 0
M  V30 20 C -4.8636 -2.1892 0.0 0
M  V30 21 C -7.3368 -1.3845 0.0 0
M  V30 22 C 6.4375 -2.1773 0.0 0
M  V30 23 C 7.7392 0.071 0.0 0
M  V30 24 C -5.3369 -3.6092 0.0 0
M  V30 25 C -7.8102 -2.8045 0.0 0
M  V30 26 C 7.7273 -1.42 0.0 0
M  V30 27 C -6.8161 -3.9051 0.0 0
M  V30 28 O 9.0172 -2.1537 0.0 0
M  V30 29 C 10.3071 -1.3963 0.0 0
M  V30 30 F 11.5969 -2.13 0.0 0
M  V30 31 F 10.2952 0.1183 0.0 0
M  V30 END ATOM
M  V30 BEGIN BOND
M  V30 1 1 1 2
M  V30 2 1 1 3
M  V30 3 2 2 4
M  V30 4 1 2 5
M  V30 5 1 3 6
M  V30 6 1 4 7
M  V30 7 1 5 8
M  V30 8 2 6 9
M  V30 9 1 6 10
M  V30 10 1 7 11
M  V30 11 2 7 12
M  V30 12 2 8 13
M  V30 13 1 10 14
M  V30 14 1 11 15
M  V30 15 1 11 16
M  V30 16 1 12 17
M  V30 17 2 14 18
M  V30 18 1 14 19
M  V30 19 2 16 20
M  V30 20 1 16 21
M  V30 21 1 18 22
M  V30 22 2 19 23
M  V30 23 1 20 24
M  V30 24 2 21 25
M  V30 25 2 22 26
M  V30 26 2 24 27
M  V30 27 1 26 28
M  V30 28 1 28 29
M  V30 29 1 29 30
M  V30 30 1 29 31
M  V30 31 1 8 12
M  V30 32 2 15 17
M  V30 33 1 23 26
M  V30 34 1 25 27
M  V30 END BOND
M  V30 END CTAB
M  END
>  <Structure No>
557

>  <Catalog ID>
Z15383125

>  <MW (desalted)>
443.427

>  <ClogP>
2.969

>  <HBD>
2

>  <TPSA>
97.610

>  <RotBonds>
7

>  <Target>
parp1

>  <fromRegid>


>  <Similarity>


$$$$
Compound 558
Actelion Java MolfileCreator 2.0

  0  0  0  0  0  0              0 V3000
M  V30 BEGIN CTAB
M  V30 COUNTS 28 31 0 0 0
M  V30 BEGIN ATOM
M  V30 1 Cl 0.0 0.0 0.0 0
M  V30 2 C -0.0118 -1.4874 0.0 0
M  V30 3 C -1.3221 -2.2193 0.0 0
M  V30 4 C 1.2749 -2.2193 0.0 0
M  V30 5 N -2.6325 -1.4638 0.0 0
M  V30 6 C -1.3339 -3.7068 0.0 0
M  V30 7 C 1.2631 -3.7068 0.0 0
M  V30 8 C -3.9429 -2.1957 0.0 0
M  V30 9 C -0.0472 -4.4387 0.0 0
M  V30 10 O -3.9547 -3.6831 0.0 0
M  V30 11 C -5.2532 -1.4402 0.0 0
M  V30 12 S -6.5636 -2.1721 0.0 0
M  V30 13 C -7.874 -1.4166 0.0 0
M  V30 14 N -9.1843 -2.1485 0.0 0
M  V30 15 N -7.8858 0.0944 0.0 0
M  V30 16 C -10.4947 -1.393 0.0 0
M  V30 17 C -9.1961 0.8499 0.0 0
M  V30 18 N -11.9349 -1.8415 0.0 0
M  V30 19 C -10.5065 0.118 0.0 0
M  V30 20 O -9.2079 2.361 0.0 0
M  V30 21 N -12.8321 -0.6138 0.0 0
M  V30 22 C -12.4071 -3.2582 0.0 0
M  V30 23 C -11.9467 0.5902 0.0 0
M  V30 24 C -11.4155 -4.356 0.0 0
M  V30 25 C -13.8828 -3.5533 0.0 0
M  V30 26 C -11.8877 -5.7727 0.0 0
M  V30 27 C -14.355 -4.9699 0.0 0
M  V30 28 C -13.3633 -6.0678 0.0 0
M  V30 END ATOM
M  V30 BEGIN BOND
M  V30 1 1 1 2
M  V30 2 2 2 3
M  V30 3 1 2 4
M  V30 4 1 3 5
M  V30 5 1 3 6
M  V30 6 2 4 7
M  V30 7 1 5 8
M  V30 8 2 6 9
M  V30 9 2 8 10
M  V30 10 1 8 11
M  V30 11 1 11 12
M  V30 12 1 12 13
M  V30 13 2 13 14
M  V30 14 1 13 15
M  V30 15 1 14 16
M  V30 16 1 15 17
M  V30 17 1 16 18
M  V30 18 2 16 19
M  V30 19 2 17 20
M  V30 20 1 18 21
M  V30 21 1 18 22
M  V30 22 1 19 23
M  V30 23 2 22 24
M  V30 24 1 22 25
M  V30 25 1 24 26
M  V30 26 2 25 27
M  V30 27 2 26 28
M  V30 28 1 7 9
M  V30 29 1 17 19
M  V30 30 2 21 23
M  V30 31 1 27 28
M  V30 END BOND
M  V30 END CTAB
M  END
>  <Structure No>
558

>  <Catalog ID>
Z15383610

>  <MW (desalted)>
411.865

>  <ClogP>
2.568

>  <HBD>
2

>  <TPSA>
88.380

>  <RotBonds>
5

>  <Target>
parp10

>  <fromRegid>


>  <Similarity>


$$$$
Compound 559
Actelion Java MolfileCreator 2.0

  0  0  0  0  0  0              0 V3000
M  V30 BEGIN CTAB
M  V30 COUNTS 29 32 0 0 0
M  V30 BEGIN ATOM
M  V30 1 Cl 0.0 0.0 0.0 0
M  V30 2 C -1.3127 0.7687 0.0 0
M  V30 3 C -1.3245 2.2825 0.0 0
M  V30 4 C -2.6254 0.0236 0.0 0
M  V30 5 C -2.6373 3.0394 0.0 0
M  V30 6 C -0.0354 3.0394 0.0 0
M  V30 7 C -3.9382 0.7923 0.0 0
M  V30 8 C -3.95 2.3061 0.0 0
M  V30 9 N 1.2536 2.3061 0.0 0
M  V30 10 C 2.5427 3.063 0.0 0
M  V30 11 O 2.5308 4.5768 0.0 0
M  V30 12 C 3.8317 2.3298 0.0 0
M  V30 13 S 5.1208 3.0867 0.0 0
M  V30 14 C 6.4099 2.3534 0.0 0
M  V30 15 N 7.699 3.1103 0.0 0
M  V30 16 N 6.3981 0.8633 0.0 0
M  V30 17 C 8.9881 2.3771 0.0 0
M  V30 18 C 7.6872 0.1182 0.0 0
M  V30 19 N 10.4073 2.8501 0.0 0
M  V30 20 C 8.9763 0.8869 0.0 0
M  V30 21 O 7.6754 -1.3718 0.0 0
M  V30 22 N 11.2825 1.6438 0.0 0
M  V30 23 C 10.8567 4.293 0.0 0
M  V30 24 C 10.3955 0.4375 0.0 0
M  V30 25 C 9.8396 5.4165 0.0 0
M  V30 26 C 12.3114 4.6123 0.0 0
M  V30 27 C 10.289 6.8593 0.0 0
M  V30 28 C 12.7608 6.0551 0.0 0
M  V30 29 C 11.7437 7.1787 0.0 0
M  V30 END ATOM
M  V30 BEGIN BOND
M  V30 1 1 1 2
M  V30 2 2 2 3
M  V30 3 1 2 4
M  V30 4 1 3 5
M  V30 5 1 3 6
M  V30 6 2 4 7
M  V30 7 2 5 8
M  V30 8 1 6 9
M  V30 9 1 9 10
M  V30 10 2 10 11
M  V30 11 1 10 12
M  V30 12 1 12 13
M  V30 13 1 13 14
M  V30 14 2 14 15
M  V30 15 1 14 16
M  V30 16 1 15 17
M  V30 17 1 16 18
M  V30 18 1 17 19
M  V30 19 2 17 20
M  V30 20 2 18 21
M  V30 21 1 19 22
M  V30 22 1 19 23
M  V30 23 1 20 24
M  V30 24 2 23 25
M  V30 25 1 23 26
M  V30 26 1 25 27
M  V30 27 2 26 28
M  V30 28 2 27 29
M  V30 29 1 7 8
M  V30 30 1 18 20
M  V30 31 2 22 24
M  V30 32 1 28 29
M  V30 END BOND
M  V30 END CTAB
M  END
>  <Structure No>
559

>  <Catalog ID>
Z15383633

>  <MW (desalted)>
425.891

>  <ClogP>
3.060

>  <HBD>
2

>  <TPSA>
88.380

>  <RotBonds>
6

>  <Target>
parp14, parp10

>  <fromRegid>


>  <Similarity>


$$$$
Compound 560
Actelion Java MolfileCreator 2.0

  0  0  0  0  0  0              0 V3000
M  V30 BEGIN CTAB
M  V30 COUNTS 30 33 0 0 0
M  V30 BEGIN ATOM
M  V30 1 Cl 0.0 0.0 0.0 0
M  V30 2 C -1.309 -0.7311 0.0 0
M  V30 3 C -1.3208 -2.2171 0.0 0
M  V30 4 C -2.618 0.0235 0.0 0
M  V30 5 O -0.0353 -2.9482 0.0 0
M  V30 6 C -2.6298 -2.9482 0.0 0
M  V30 7 C -3.9271 -0.7075 0.0 0
M  V30 8 C 1.25 -2.1935 0.0 0
M  V30 9 C -3.9388 -2.1935 0.0 0
M  V30 10 N -5.2361 0.0471 0.0 0
M  V30 11 C -6.5451 -0.684 0.0 0
M  V30 12 O -6.5569 -2.1699 0.0 0
M  V30 13 C -7.8542 0.0707 0.0 0
M  V30 14 S -9.1632 -0.6604 0.0 0
M  V30 15 C -10.4722 0.0943 0.0 0
M  V30 16 N -11.7813 -0.6368 0.0 0
M  V30 17 N -10.484 1.6038 0.0 0
M  V30 18 C -13.0903 0.1179 0.0 0
M  V30 19 C -11.7931 2.3586 0.0 0
M  V30 20 N -14.5291 -0.3302 0.0 0
M  V30 21 C -13.1021 1.6274 0.0 0
M  V30 22 O -11.8049 3.8681 0.0 0
M  V30 23 N -15.4253 0.8962 0.0 0
M  V30 24 C -15.0008 -1.7453 0.0 0
M  V30 25 C -14.5409 2.0991 0.0 0
M  V30 26 C -14.0102 -2.8421 0.0 0
M  V30 27 C -16.4749 -2.0402 0.0 0
M  V30 28 C -14.4819 -4.2573 0.0 0
M  V30 29 C -16.9466 -3.4553 0.0 0
M  V30 30 C -15.956 -4.5521 0.0 0
M  V30 END ATOM
M  V30 BEGIN BOND
M  V30 1 1 1 2
M  V30 2 2 2 3
M  V30 3 1 2 4
M  V30 4 1 3 5
M  V30 5 1 3 6
M  V30 6 2 4 7
M  V30 7 1 5 8
M  V30 8 2 6 9
M  V30 9 1 7 10
M  V30 10 1 10 11
M  V30 11 2 11 12
M  V30 12 1 11 13
M  V30 13 1 13 14
M  V30 14 1 14 15
M  V30 15 2 15 16
M  V30 16 1 15 17
M  V30 17 1 16 18
M  V30 18 1 17 19
M  V30 19 1 18 20
M  V30 20 2 18 21
M  V30 21 2 19 22
M  V30 22 1 20 23
M  V30 23 1 20 24
M  V30 24 1 21 25
M  V30 25 2 24 26
M  V30 26 1 24 27
M  V30 27 1 26 28
M  V30 28 2 27 29
M  V30 29 2 28 30
M  V30 30 1 7 9
M  V30 31 1 19 21
M  V30 32 2 23 25
M  V30 33 1 29 30
M  V30 END BOND
M  V30 END CTAB
M  END
>  <Structure No>
560

>  <Catalog ID>
Z15383645

>  <MW (desalted)>
441.891

>  <ClogP>
3.204

>  <HBD>
2

>  <TPSA>
97.610

>  <RotBonds>
6

>  <Target>
parp1

>  <fromRegid>


>  <Similarity>


$$$$
Compound 561
Actelion Java MolfileCreator 2.0

  0  0  0  0  0  0              0 V3000
M  V30 BEGIN CTAB
M  V30 COUNTS 28 31 0 0 0
M  V30 BEGIN ATOM
M  V30 1 S 0.0 0.0 0.0 0
M  V30 2 C -1.3793 -0.6012 0.0 0
M  V30 3 C 0.9903 -1.0964 0.0 0
M  V30 4 N -2.6879 0.1532 0.0 0
M  V30 5 C -1.2378 -2.0749 0.0 0
M  V30 6 C 0.2357 -2.3814 0.0 0
M  V30 7 C -2.6997 1.6623 0.0 0
M  V30 8 C -2.3578 -3.0652 0.0 0
M  V30 9 O -1.4147 2.4168 0.0 0
M  V30 10 C -4.0083 2.4168 0.0 0
M  V30 11 N -3.4778 -4.0555 0.0 0
M  V30 12 S -4.0201 3.9258 0.0 0
M  V30 13 C -5.3288 4.6803 0.0 0
M  V30 14 N -6.6374 3.9494 0.0 0
M  V30 15 N -5.3405 6.1894 0.0 0
M  V30 16 C -7.946 4.7039 0.0 0
M  V30 17 C -6.6492 6.9439 0.0 0
M  V30 18 N -9.3843 4.2559 0.0 0
M  V30 19 C -7.9578 6.213 0.0 0
M  V30 20 O -6.661 8.4529 0.0 0
M  V30 21 N -10.2803 5.482 0.0 0
M  V30 22 C -9.8559 2.8412 0.0 0
M  V30 23 C -9.3961 6.6845 0.0 0
M  V30 24 C -8.8656 1.7448 0.0 0
M  V30 25 C -11.3296 2.5465 0.0 0
M  V30 26 C -9.3372 0.3301 0.0 0
M  V30 27 C -11.8011 1.1317 0.0 0
M  V30 28 C -10.8108 0.0353 0.0 0
M  V30 END ATOM
M  V30 BEGIN BOND
M  V30 1 1 1 2
M  V30 2 1 1 3
M  V30 3 1 2 4
M  V30 4 2 2 5
M  V30 5 2 3 6
M  V30 6 1 4 7
M  V30 7 1 5 8
M  V30 8 2 7 9
M  V30 9 1 7 10
M  V30 10 3 8 11
M  V30 11 1 10 12
M  V30 12 1 12 13
M  V30 13 2 13 14
M  V30 14 1 13 15
M  V30 15 1 14 16
M  V30 16 1 15 17
M  V30 17 1 16 18
M  V30 18 2 16 19
M  V30 19 2 17 20
M  V30 20 1 18 21
M  V30 21 1 18 22
M  V30 22 1 19 23
M  V30 23 2 22 24
M  V30 24 1 22 25
M  V30 25 1 24 26
M  V30 26 2 25 27
M  V30 27 2 26 28
M  V30 28 1 5 6
M  V30 29 1 17 19
M  V30 30 2 21 23
M  V30 31 1 27 28
M  V30 END BOND
M  V30 END CTAB
M  END
>  <Structure No>
561

>  <Catalog ID>
Z15383243

>  <MW (desalted)>
408.457

>  <ClogP>
1.518

>  <HBD>
2

>  <TPSA>
112.170

>  <RotBonds>
5

>  <Target>
parp10

>  <fromRegid>


>  <Similarity>


$$$$
Compound 562
Actelion Java MolfileCreator 2.0

  0  0  0  0  0  0              0 V3000
M  V30 BEGIN CTAB
M  V30 COUNTS 29 31 0 0 0
M  V30 BEGIN ATOM
M  V30 1 S 0.0 0.0 0.0 0
M  V30 2 C 0.4839 -1.4046 0.0 0
M  V30 3 C -1.4872 0.295 0.0 0
M  V30 4 N 1.9476 -1.6761 0.0 0
M  V30 5 N -0.5075 -2.526 0.0 0
M  V30 6 C -1.9948 1.7233 0.0 0
M  V30 7 C 2.4316 -3.0808 0.0 0
M  V30 8 C -0.0236 -3.9307 0.0 0
M  V30 9 O -1.0269 2.8683 0.0 0
M  V30 10 N -3.4821 2.0184 0.0 0
M  V30 11 N 3.8008 -3.6474 0.0 0
M  V30 12 C 1.44 -4.2022 0.0 0
M  V30 13 O -1.0151 -5.052 0.0 0
M  V30 14 C -3.9897 3.4467 0.0 0
M  V30 15 C -4.4736 0.8971 0.0 0
M  V30 16 N 3.6592 -5.1347 0.0 0
M  V30 17 C 5.0756 -2.8565 0.0 0
M  V30 18 C 2.2073 -5.477 0.0 0
M  V30 19 C -5.477 3.7418 0.0 0
M  V30 20 C -5.9609 1.1921 0.0 0
M  V30 21 C 5.0402 -1.3456 0.0 0
M  V30 22 C 6.3741 -3.5647 0.0 0
M  V30 23 O -5.9846 5.1701 0.0 0
M  V30 24 O -6.9525 0.0708 0.0 0
M  V30 25 C 6.3151 -0.5547 0.0 0
M  V30 26 C 7.6489 -2.7739 0.0 0
M  V30 27 C -7.4719 5.4652 0.0 0
M  V30 28 C -8.4398 0.3659 0.0 0
M  V30 29 C 7.6135 -1.263 0.0 0
M  V30 END ATOM
M  V30 BEGIN BOND
M  V30 1 1 1 2
M  V30 2 1 1 3
M  V30 3 2 2 4
M  V30 4 1 2 5
M  V30 5 1 3 6
M  V30 6 1 4 7
M  V30 7 1 5 8
M  V30 8 2 6 9
M  V30 9 1 6 10
M  V30 10 1 7 11
M  V30 11 2 7 12
M  V30 12 2 8 13
M  V30 13 1 10 14
M  V30 14 1 10 15
M  V30 15 1 11 16
M  V30 16 1 11 17
M  V30 17 1 12 18
M  V30 18 1 14 19
M  V30 19 1 15 20
M  V30 20 2 17 21
M  V30 21 1 17 22
M  V30 22 1 19 23
M  V30 23 1 20 24
M  V30 24 1 21 25
M  V30 25 2 22 26
M  V30 26 1 23 27
M  V30 27 1 24 28
M  V30 28 2 25 29
M  V30 29 1 8 12
M  V30 30 2 16 18
M  V30 31 1 26 29
M  V30 END BOND
M  V30 END CTAB
M  END
>  <Structure No>
562

>  <Catalog ID>
Z15383268

>  <MW (desalted)>
417.482

>  <ClogP>
2.017

>  <HBD>
1

>  <TPSA>
98.050

>  <RotBonds>
10

>  <Target>
parp2

>  <fromRegid>


>  <Similarity>


$$$$
Compound 563
Actelion Java MolfileCreator 2.0

  0  0  0  0  0  0              0 V3000
M  V30 BEGIN CTAB
M  V30 COUNTS 28 31 0 0 0
M  V30 BEGIN ATOM
M  V30 1 S 0.0 0.0 0.0 0
M  V30 2 O 1.3546 -0.6007 0.0 0
M  V30 3 O -0.4711 -1.4135 0.0 0
M  V30 4 C -1.4724 0.318 0.0 0
M  V30 5 C 0.7303 1.3075 0.0 0
M  V30 6 C -1.6373 1.814 0.0 0 CFG=2
M  V30 7 C -0.2827 2.4266 0.0 0
M  V30 8 N -2.9449 2.5679 0.0 0
M  V30 9 C -2.9567 4.0758 0.0 0
M  V30 10 O -1.6727 4.8297 0.0 0
M  V30 11 C -4.2642 4.8297 0.0 0
M  V30 12 S -4.276 6.3375 0.0 0
M  V30 13 C -5.5836 7.0914 0.0 0
M  V30 14 N -6.8911 6.361 0.0 0
M  V30 15 N -5.5954 8.5992 0.0 0
M  V30 16 C -8.1987 7.1149 0.0 0
M  V30 17 C -6.9029 9.3531 0.0 0
M  V30 18 N -9.6358 6.6673 0.0 0
M  V30 19 C -8.2105 8.6228 0.0 0
M  V30 20 O -6.9147 10.8609 0.0 0
M  V30 21 N -10.5311 7.8924 0.0 0
M  V30 22 C -10.107 5.2537 0.0 0
M  V30 23 C -9.6476 9.0939 0.0 0
M  V30 24 C -9.1175 4.1582 0.0 0
M  V30 25 C -11.5795 4.9592 0.0 0
M  V30 26 C -9.5887 2.7446 0.0 0
M  V30 27 C -12.0507 3.5457 0.0 0
M  V30 28 C -11.0612 2.4501 0.0 0
M  V30 END ATOM
M  V30 BEGIN BOND
M  V30 1 2 1 2
M  V30 2 2 1 3
M  V30 3 1 1 4
M  V30 4 1 1 5
M  V30 5 1 4 6
M  V30 6 1 5 7
M  V30 7 1 6 8 CFG=1
M  V30 8 1 8 9
M  V30 9 2 9 10
M  V30 10 1 9 11
M  V30 11 1 11 12
M  V30 12 1 12 13
M  V30 13 2 13 14
M  V30 14 1 13 15
M  V30 15 1 14 16
M  V30 16 1 15 17
M  V30 17 1 16 18
M  V30 18 2 16 19
M  V30 19 2 17 20
M  V30 20 1 18 21
M  V30 21 1 18 22
M  V30 22 1 19 23
M  V30 23 2 22 24
M  V30 24 1 22 25
M  V30 25 1 24 26
M  V30 26 2 25 27
M  V30 27 2 26 28
M  V30 28 1 6 7
M  V30 29 1 17 19
M  V30 30 2 21 23
M  V30 31 1 27 28
M  V30 END BOND
M  V30 BEGIN COLLECTION
M  V30 MDLV30/STERAC1 ATOMS=(1 6)
M  V30 END COLLECTION
M  V30 END CTAB
M  END
>  <Structure No>
563

>  <Catalog ID>
Z15383278

>  <MW (desalted)>
419.478

>  <ClogP>
-0.498

>  <HBD>
2

>  <TPSA>
122.520

>  <RotBonds>
5

>  <Target>
parp1, parp2

>  <fromRegid>


>  <Similarity>


$$$$
Compound 564
Actelion Java MolfileCreator 2.0

  0  0  0  0  0  0              0 V3000
M  V30 BEGIN CTAB
M  V30 COUNTS 28 31 0 0 0
M  V30 BEGIN ATOM
M  V30 1 Cl 0.0 0.0 0.0 0
M  V30 2 C -1.3081 -0.7306 0.0 0
M  V30 3 C -2.6163 0.0235 0.0 0
M  V30 4 C -1.3199 -2.2156 0.0 0
M  V30 5 C -3.9245 -0.7071 0.0 0
M  V30 6 C -2.6281 -2.9463 0.0 0
M  V30 7 N -5.2327 0.0471 0.0 0
M  V30 8 C -3.9363 -2.192 0.0 0
M  V30 9 C -6.5408 -0.6835 0.0 0
M  V30 10 O -6.5526 -2.1685 0.0 0
M  V30 11 C -7.849 0.0707 0.0 0
M  V30 12 S -9.1572 -0.6599 0.0 0
M  V30 13 C -10.4654 0.0942 0.0 0
M  V30 14 N -11.7735 -0.6364 0.0 0
M  V30 15 N -10.4772 1.6028 0.0 0
M  V30 16 C -13.0817 0.1178 0.0 0
M  V30 17 C -11.7853 2.357 0.0 0
M  V30 18 N -14.5195 -0.3299 0.0 0
M  V30 19 C -13.0935 1.6263 0.0 0
M  V30 20 O -11.7971 3.8656 0.0 0
M  V30 21 N -15.4152 0.8956 0.0 0
M  V30 22 C -14.991 -1.7442 0.0 0
M  V30 23 C -14.5313 2.0977 0.0 0
M  V30 24 C -14.001 -2.8402 0.0 0
M  V30 25 C -16.4641 -2.0388 0.0 0
M  V30 26 C -14.4724 -4.2545 0.0 0
M  V30 27 C -16.9355 -3.4531 0.0 0
M  V30 28 C -15.9456 -4.5491 0.0 0
M  V30 END ATOM
M  V30 BEGIN BOND
M  V30 1 1 1 2
M  V30 2 2 2 3
M  V30 3 1 2 4
M  V30 4 1 3 5
M  V30 5 2 4 6
M  V30 6 1 5 7
M  V30 7 2 5 8
M  V30 8 1 7 9
M  V30 9 2 9 10
M  V30 10 1 9 11
M  V30 11 1 11 12
M  V30 12 1 12 13
M  V30 13 2 13 14
M  V30 14 1 13 15
M  V30 15 1 14 16
M  V30 16 1 15 17
M  V30 17 1 16 18
M  V30 18 2 16 19
M  V30 19 2 17 20
M  V30 20 1 18 21
M  V30 21 1 18 22
M  V30 22 1 19 23
M  V30 23 2 22 24
M  V30 24 1 22 25
M  V30 25 1 24 26
M  V30 26 2 25 27
M  V30 27 2 26 28
M  V30 28 1 6 8
M  V30 29 1 17 19
M  V30 30 2 21 23
M  V30 31 1 27 28
M  V30 END BOND
M  V30 END CTAB
M  END
>  <Structure No>
564

>  <Catalog ID>
Z15383718

>  <MW (desalted)>
411.865

>  <ClogP>
3.418

>  <HBD>
2

>  <TPSA>
88.380

>  <RotBonds>
5

>  <Target>
parp10

>  <fromRegid>


>  <Similarity>


$$$$
Compound 565
Actelion Java MolfileCreator 2.0

  0  0  0  0  0  0              0 V3000
M  V30 BEGIN CTAB
M  V30 COUNTS 28 31 0 0 0
M  V30 BEGIN ATOM
M  V30 1 S 0.0 0.0 0.0 0
M  V30 2 C -1.3125 0.7567 0.0 0
M  V30 3 C 1.2888 0.7567 0.0 0
M  V30 4 N -2.625 0.0236 0.0 0
M  V30 5 N -1.3243 2.2702 0.0 0
M  V30 6 C 2.5777 0.0236 0.0 0
M  V30 7 C -3.9375 0.7804 0.0 0
M  V30 8 C -2.6368 3.027 0.0 0
M  V30 9 O 2.5658 -1.4662 0.0 0
M  V30 10 N 3.8665 0.7804 0.0 0
M  V30 11 N -5.3801 0.331 0.0 0
M  V30 12 C -3.9493 2.2939 0.0 0
M  V30 13 O -2.6486 4.5405 0.0 0
M  V30 14 C 5.1554 0.0472 0.0 0
M  V30 15 N -6.2787 1.5608 0.0 0
M  V30 16 C -5.853 -1.0878 0.0 0
M  V30 17 C -5.3919 2.7669 0.0 0
M  V30 18 C 6.4442 0.804 0.0 0
M  V30 19 C 5.1436 -1.4425 0.0 0
M  V30 20 C -4.8598 -2.1875 0.0 0
M  V30 21 C -7.3311 -1.3834 0.0 0
M  V30 22 C 7.7331 0.0709 0.0 0
M  V30 23 C 6.4324 2.3175 0.0 0
M  V30 24 C 6.4324 -2.1756 0.0 0
M  V30 25 C -5.3328 -3.6064 0.0 0
M  V30 26 C -7.8041 -2.8023 0.0 0
M  V30 27 C 7.7213 -1.4189 0.0 0
M  V30 28 C -6.8108 -3.902 0.0 0
M  V30 END ATOM
M  V30 BEGIN BOND
M  V30 1 1 1 2
M  V30 2 1 1 3
M  V30 3 2 2 4
M  V30 4 1 2 5
M  V30 5 1 3 6
M  V30 6 1 4 7
M  V30 7 1 5 8
M  V30 8 2 6 9
M  V30 9 1 6 10
M  V30 10 1 7 11
M  V30 11 2 7 12
M  V30 12 2 8 13
M  V30 13 1 10 14
M  V30 14 1 11 15
M  V30 15 1 11 16
M  V30 16 1 12 17
M  V30 17 1 14 18
M  V30 18 1 14 19
M  V30 19 2 16 20
M  V30 20 1 16 21
M  V30 21 1 18 22
M  V30 22 1 18 23
M  V30 23 1 19 24
M  V30 24 1 20 25
M  V30 25 2 21 26
M  V30 26 1 22 27
M  V30 27 2 25 28
M  V30 28 1 8 12
M  V30 29 2 15 17
M  V30 30 1 24 27
M  V30 31 1 26 28
M  V30 END BOND
M  V30 END CTAB
M  END
>  <Structure No>
565

>  <Catalog ID>
Z15383306

>  <MW (desalted)>
397.494

>  <ClogP>
3.016

>  <HBD>
2

>  <TPSA>
88.380

>  <RotBonds>
5

>  <Target>
parp14

>  <fromRegid>


>  <Similarity>


$$$$
Compound 566
Actelion Java MolfileCreator 2.0

  0  0  0  0  0  0              0 V3000
M  V30 BEGIN CTAB
M  V30 COUNTS 28 31 0 0 0
M  V30 BEGIN ATOM
M  V30 1 S 0.0 0.0 0.0 0
M  V30 2 C -1.3125 0.7567 0.0 0
M  V30 3 C 1.2888 0.7567 0.0 0
M  V30 4 N -2.625 0.0236 0.0 0
M  V30 5 N -1.3243 2.2702 0.0 0
M  V30 6 C 2.5777 0.0236 0.0 0
M  V30 7 C -3.9375 0.7804 0.0 0
M  V30 8 C -2.6368 3.027 0.0 0
M  V30 9 O 2.5658 -1.4662 0.0 0
M  V30 10 N 3.8665 0.7804 0.0 0
M  V30 11 N -5.3801 0.331 0.0 0
M  V30 12 C -3.9493 2.2939 0.0 0
M  V30 13 O -2.6486 4.5405 0.0 0
M  V30 14 C 5.1554 0.0472 0.0 0
M  V30 15 N -6.2787 1.5608 0.0 0
M  V30 16 C -5.853 -1.0878 0.0 0
M  V30 17 C -5.3919 2.7669 0.0 0
M  V30 18 C 6.4442 0.804 0.0 0
M  V30 19 C 5.1436 -1.4425 0.0 0
M  V30 20 C -4.8598 -2.1875 0.0 0
M  V30 21 C -7.3311 -1.3834 0.0 0
M  V30 22 F 6.4324 2.3175 0.0 0
M  V30 23 C 7.7331 0.0709 0.0 0
M  V30 24 C 6.4324 -2.1756 0.0 0
M  V30 25 C -5.3328 -3.6064 0.0 0
M  V30 26 C -7.8041 -2.8023 0.0 0
M  V30 27 C 7.7213 -1.4189 0.0 0
M  V30 28 C -6.8108 -3.902 0.0 0
M  V30 END ATOM
M  V30 BEGIN BOND
M  V30 1 1 1 2
M  V30 2 1 1 3
M  V30 3 2 2 4
M  V30 4 1 2 5
M  V30 5 1 3 6
M  V30 6 1 4 7
M  V30 7 1 5 8
M  V30 8 2 6 9
M  V30 9 1 6 10
M  V30 10 1 7 11
M  V30 11 2 7 12
M  V30 12 2 8 13
M  V30 13 1 10 14
M  V30 14 1 11 15
M  V30 15 1 11 16
M  V30 16 1 12 17
M  V30 17 2 14 18
M  V30 18 1 14 19
M  V30 19 2 16 20
M  V30 20 1 16 21
M  V30 21 1 18 22
M  V30 22 1 18 23
M  V30 23 2 19 24
M  V30 24 1 20 25
M  V30 25 2 21 26
M  V30 26 2 23 27
M  V30 27 2 25 28
M  V30 28 1 8 12
M  V30 29 2 15 17
M  V30 30 1 24 27
M  V30 31 1 26 28
M  V30 END BOND
M  V30 END CTAB
M  END
>  <Structure No>
566

>  <Catalog ID>
Z15383770

>  <MW (desalted)>
395.410

>  <ClogP>
2.248

>  <HBD>
2

>  <TPSA>
88.380

>  <RotBonds>
5

>  <Target>
parp14

>  <fromRegid>


>  <Similarity>


$$$$
Compound 567
Actelion Java MolfileCreator 2.0

  0  0  0  0  0  0              0 V3000
M  V30 BEGIN CTAB
M  V30 COUNTS 27 30 0 0 0
M  V30 BEGIN ATOM
M  V30 1 S 0.0 0.0 0.0 0
M  V30 2 C -1.3129 0.7569 0.0 0
M  V30 3 C 1.2892 0.7569 0.0 0
M  V30 4 N -2.6258 0.0236 0.0 0
M  V30 5 N -1.3247 2.2709 0.0 0
M  V30 6 C 2.5784 0.0236 0.0 0
M  V30 7 C -3.9387 0.7806 0.0 0
M  V30 8 C -2.6376 3.0279 0.0 0
M  V30 9 O 2.5666 -1.4666 0.0 0
M  V30 10 N 3.8677 0.7806 0.0 0
M  V30 11 N -5.3817 0.3311 0.0 0
M  V30 12 C -3.9505 2.2946 0.0 0
M  V30 13 O -2.6494 4.5419 0.0 0
M  V30 14 C 5.1569 0.0473 0.0 0
M  V30 15 N -6.2806 1.5612 0.0 0
M  V30 16 C -5.8548 -1.0881 0.0 0
M  V30 17 C -5.3935 2.7677 0.0 0
M  V30 18 C 6.4462 0.8043 0.0 0
M  V30 19 C 5.1451 -1.443 0.0 0
M  V30 20 C -4.8612 -2.1881 0.0 0
M  V30 21 C -7.3333 -1.3838 0.0 0
M  V30 22 C 7.7354 0.0709 0.0 0
M  V30 23 C 6.4344 -2.1763 0.0 0
M  V30 24 C -5.3344 -3.6075 0.0 0
M  V30 25 C -7.8064 -2.8032 0.0 0
M  V30 26 C 7.7236 -1.4193 0.0 0
M  V30 27 C -6.8129 -3.9032 0.0 0
M  V30 END ATOM
M  V30 BEGIN BOND
M  V30 1 1 1 2
M  V30 2 1 1 3
M  V30 3 2 2 4
M  V30 4 1 2 5
M  V30 5 1 3 6
M  V30 6 1 4 7
M  V30 7 1 5 8
M  V30 8 2 6 9
M  V30 9 1 6 10
M  V30 10 1 7 11
M  V30 11 2 7 12
M  V30 12 2 8 13
M  V30 13 1 10 14
M  V30 14 1 11 15
M  V30 15 1 11 16
M  V30 16 1 12 17
M  V30 17 1 14 18
M  V30 18 1 14 19
M  V30 19 2 16 20
M  V30 20 1 16 21
M  V30 21 1 18 22
M  V30 22 1 19 23
M  V30 23 1 20 24
M  V30 24 2 21 25
M  V30 25 1 22 26
M  V30 26 2 24 27
M  V30 27 1 8 12
M  V30 28 2 15 17
M  V30 29 1 23 26
M  V30 30 1 25 27
M  V30 END BOND
M  V30 END CTAB
M  END
>  <Structure No>
567

>  <Catalog ID>
Z15383776

>  <MW (desalted)>
383.467

>  <ClogP>
2.497

>  <HBD>
2

>  <TPSA>
88.380

>  <RotBonds>
5

>  <Target>
parp14

>  <fromRegid>


>  <Similarity>


$$$$
Compound 568
Actelion Java MolfileCreator 2.0

  0  0  0  0  0  0              0 V3000
M  V30 BEGIN CTAB
M  V30 COUNTS 30 33 0 0 0
M  V30 BEGIN ATOM
M  V30 1 S 0.0 0.0 0.0 0
M  V30 2 C -1.3131 0.7571 0.0 0
M  V30 3 C 1.2894 0.7571 0.0 0
M  V30 4 N -2.6262 0.0236 0.0 0
M  V30 5 N -1.3249 2.2713 0.0 0
M  V30 6 C 2.5788 0.0236 0.0 0
M  V30 7 C -3.9393 0.7807 0.0 0
M  V30 8 C -2.638 3.0284 0.0 0
M  V30 9 O 2.567 -1.4668 0.0 0
M  V30 10 N 3.8683 0.7807 0.0 0
M  V30 11 N -5.3825 0.3312 0.0 0
M  V30 12 C -3.9511 2.2949 0.0 0
M  V30 13 O -2.6498 4.5426 0.0 0
M  V30 14 C 5.1577 0.0473 0.0 0
M  V30 15 N -6.2816 1.5615 0.0 0
M  V30 16 C -5.8557 -1.0883 0.0 0
M  V30 17 C -5.3943 2.7681 0.0 0
M  V30 18 C 6.4472 0.8044 0.0 0
M  V30 19 C 5.1459 -1.4432 0.0 0
M  V30 20 C -4.862 -2.1885 0.0 0
M  V30 21 C -7.3344 -1.384 0.0 0
M  V30 22 C 7.7366 0.0709 0.0 0
M  V30 23 C 6.4354 -2.1766 0.0 0
M  V30 24 C -5.3352 -3.608 0.0 0
M  V30 25 C -7.8076 -2.8036 0.0 0
M  V30 26 N 9.0261 0.828 0.0 0 CHG=1
M  V30 27 C 7.7248 -1.4195 0.0 0
M  V30 28 C -6.8139 -3.9038 0.0 0
M  V30 29 O 9.0143 2.3423 0.0 0
M  V30 30 O 10.3155 0.0946 0.0 0 CHG=-1
M  V30 END ATOM
M  V30 BEGIN BOND
M  V30 1 1 1 2
M  V30 2 1 1 3
M  V30 3 2 2 4
M  V30 4 1 2 5
M  V30 5 1 3 6
M  V30 6 1 4 7
M  V30 7 1 5 8
M  V30 8 2 6 9
M  V30 9 1 6 10
M  V30 10 1 7 11
M  V30 11 2 7 12
M  V30 12 2 8 13
M  V30 13 1 10 14
M  V30 14 1 11 15
M  V30 15 1 11 16
M  V30 16 1 12 17
M  V30 17 2 14 18
M  V30 18 1 14 19
M  V30 19 2 16 20
M  V30 20 1 16 21
M  V30 21 1 18 22
M  V30 22 2 19 23
M  V30 23 1 20 24
M  V30 24 2 21 25
M  V30 25 1 22 26
M  V30 26 2 22 27
M  V30 27 2 24 28
M  V30 28 2 26 29
M  V30 29 1 26 30
M  V30 30 1 8 12
M  V30 31 2 15 17
M  V30 32 1 23 27
M  V30 33 1 25 28
M  V30 END BOND
M  V30 END CTAB
M  END
>  <Structure No>
568

>  <Catalog ID>
Z15383777

>  <MW (desalted)>
422.417

>  <ClogP>
2.742

>  <HBD>
2

>  <TPSA>
131.520

>  <RotBonds>
6

>  <Target>
parp2

>  <fromRegid>


>  <Similarity>


$$$$
Compound 569
Actelion Java MolfileCreator 2.0

  0  0  0  0  0  0              0 V3000
M  V30 BEGIN CTAB
M  V30 COUNTS 29 32 0 0 0
M  V30 BEGIN ATOM
M  V30 1 S 0.0 0.0 0.0 0
M  V30 2 C -1.3124 0.7567 0.0 0
M  V30 3 C 1.2888 0.7567 0.0 0
M  V30 4 N -2.6249 0.0118 0.0 0
M  V30 5 N -1.3242 2.2702 0.0 0
M  V30 6 C 2.5776 0.0118 0.0 0
M  V30 7 C -3.9374 0.7685 0.0 0
M  V30 8 C -2.6367 3.0269 0.0 0
M  V30 9 O 2.5658 -1.478 0.0 0
M  V30 10 N 3.8664 0.7685 0.0 0
M  V30 11 N -5.3799 0.3192 0.0 0
M  V30 12 C -3.9492 2.282 0.0 0
M  V30 13 O -2.6485 4.5404 0.0 0
M  V30 14 C 5.1553 0.0236 0.0 0
M  V30 15 N -6.2785 1.5489 0.0 0
M  V30 16 C -5.8529 -1.0996 0.0 0
M  V30 17 C -5.3917 2.755 0.0 0
M  V30 18 O 5.1434 -1.4661 0.0 0
M  V30 19 N 6.4441 0.7803 0.0 0
M  V30 20 C -4.8596 -2.1992 0.0 0
M  V30 21 C -7.3309 -1.3952 0.0 0
M  V30 22 C 7.7329 0.0354 0.0 0
M  V30 23 C -5.3326 -3.6181 0.0 0
M  V30 24 C -7.8038 -2.8141 0.0 0
M  V30 25 C 9.0927 0.6621 0.0 0
M  V30 26 C 7.8748 -1.4425 0.0 0
M  V30 27 C -6.8106 -3.9137 0.0 0
M  V30 28 C 10.0859 -0.4374 0.0 0
M  V30 29 C 9.3292 -1.7381 0.0 0
M  V30 END ATOM
M  V30 BEGIN BOND
M  V30 1 1 1 2
M  V30 2 1 1 3
M  V30 3 2 2 4
M  V30 4 1 2 5
M  V30 5 1 3 6
M  V30 6 1 4 7
M  V30 7 1 5 8
M  V30 8 2 6 9
M  V30 9 1 6 10
M  V30 10 1 7 11
M  V30 11 2 7 12
M  V30 12 2 8 13
M  V30 13 1 10 14
M  V30 14 1 11 15
M  V30 15 1 11 16
M  V30 16 1 12 17
M  V30 17 2 14 18
M  V30 18 1 14 19
M  V30 19 2 16 20
M  V30 20 1 16 21
M  V30 21 1 19 22
M  V30 22 1 20 23
M  V30 23 2 21 24
M  V30 24 1 22 25
M  V30 25 1 22 26
M  V30 26 2 23 27
M  V30 27 1 25 28
M  V30 28 1 26 29
M  V30 29 1 8 12
M  V30 30 2 15 17
M  V30 31 1 24 27
M  V30 32 1 28 29
M  V30 END BOND
M  V30 END CTAB
M  END
>  <Structure No>
569

>  <Catalog ID>
Z15383363

>  <MW (desalted)>
412.466

>  <ClogP>
2.244

>  <HBD>
3

>  <TPSA>
117.480

>  <RotBonds>
5

>  <Target>
parp14

>  <fromRegid>


>  <Similarity>


$$$$
Compound 570
Actelion Java MolfileCreator 2.0

  0  0  0  0  0  0              0 V3000
M  V30 BEGIN CTAB
M  V30 COUNTS 32 36 0 0 0
M  V30 BEGIN ATOM
M  V30 1 S 0.0 0.0 0.0 0
M  V30 2 C -0.0117 1.508 0.0 0
M  V30 3 C -1.3077 -0.7304 0.0 0 CFG=2
M  V30 4 N -1.3195 2.262 0.0 0
M  V30 5 N 1.2723 2.262 0.0 0
M  V30 6 C -1.3195 -2.2149 0.0 0
M  V30 7 C -2.6154 0.0235 0.0 0
M  V30 8 C -1.3312 3.77 0.0 0
M  V30 9 C 1.2606 3.77 0.0 0
M  V30 10 O -0.0353 -2.9571 0.0 0
M  V30 11 N -2.6272 -2.9571 0.0 0
M  V30 12 N -2.4505 4.7832 0.0 0
M  V30 13 C -0.0471 4.5358 0.0 0
M  V30 14 O 2.5447 4.5358 0.0 0
M  V30 15 C -2.639 -4.4415 0.0 0
M  V30 16 N -1.8496 6.1616 0.0 0
M  V30 17 C -3.9232 4.4887 0.0 0
M  V30 18 C -0.3652 6.0085 0.0 0
M  V30 19 C -3.9467 -5.172 0.0 0
M  V30 20 C -4.3944 3.0749 0.0 0
M  V30 21 C -4.9364 5.6079 0.0 0
M  V30 22 C -5.2545 -4.418 0.0 0
M  V30 23 C -3.9585 -6.6564 0.0 0
M  V30 24 C -5.8671 2.7804 0.0 0
M  V30 25 C -6.409 5.3134 0.0 0
M  V30 26 C -6.5622 -5.1484 0.0 0
M  V30 27 C -5.2662 -7.3869 0.0 0
M  V30 28 C -6.8803 3.8996 0.0 0
M  V30 29 O -7.9995 -4.6772 0.0 0
M  V30 30 C -6.574 -6.6329 0.0 0
M  V30 31 C -8.8949 -5.8789 0.0 0
M  V30 32 O -8.0113 -7.0806 0.0 0
M  V30 END ATOM
M  V30 BEGIN BOND
M  V30 1 1 1 2
M  V30 2 1 3 1 CFG=3
M  V30 3 2 2 4
M  V30 4 1 2 5
M  V30 5 1 3 6
M  V30 6 1 3 7
M  V30 7 1 4 8
M  V30 8 1 5 9
M  V30 9 2 6 10
M  V30 10 1 6 11
M  V30 11 1 8 12
M  V30 12 2 8 13
M  V30 13 2 9 14
M  V30 14 1 11 15
M  V30 15 1 12 16
M  V30 16 1 12 17
M  V30 17 1 13 18
M  V30 18 1 15 19
M  V30 19 2 17 20
M  V30 20 1 17 21
M  V30 21 2 19 22
M  V30 22 1 19 23
M  V30 23 1 20 24
M  V30 24 2 21 25
M  V30 25 1 22 26
M  V30 26 2 23 27
M  V30 27 2 24 28
M  V30 28 1 26 29
M  V30 29 2 26 30
M  V30 30 1 29 31
M  V30 31 1 30 32
M  V30 32 1 9 13
M  V30 33 2 16 18
M  V30 34 1 25 28
M  V30 35 1 27 30
M  V30 36 1 31 32
M  V30 END BOND
M  V30 BEGIN COLLECTION
M  V30 MDLV30/STERAC1 ATOMS=(1 3)
M  V30 END COLLECTION
M  V30 END CTAB
M  END
>  <Structure No>
570

>  <Catalog ID>
Z15383380

>  <MW (desalted)>
449.482

>  <ClogP>
2.621

>  <HBD>
2

>  <TPSA>
106.840

>  <RotBonds>
6

>  <Target>
parp3

>  <fromRegid>


>  <Similarity>


$$$$
Compound 571
Actelion Java MolfileCreator 2.0

  0  0  0  0  0  0              0 V3000
M  V30 BEGIN CTAB
M  V30 COUNTS 30 33 0 0 0
M  V30 BEGIN ATOM
M  V30 1 S 0.0 0.0 0.0 0
M  V30 2 C -1.3137 0.7574 0.0 0
M  V30 3 C 1.29 0.7574 0.0 0
M  V30 4 N -2.6274 0.0236 0.0 0
M  V30 5 N -1.3255 2.2724 0.0 0
M  V30 6 C 2.5801 0.0236 0.0 0
M  V30 7 C -3.9412 0.7811 0.0 0
M  V30 8 C -2.6393 3.0298 0.0 0
M  V30 9 O 2.5682 -1.4675 0.0 0
M  V30 10 N 3.8701 0.7811 0.0 0
M  V30 11 N -5.3851 0.3313 0.0 0
M  V30 12 C -3.953 2.296 0.0 0
M  V30 13 O -2.6511 4.5448 0.0 0
M  V30 14 C 5.1602 0.0473 0.0 0
M  V30 15 N -6.2846 1.5622 0.0 0
M  V30 16 C -5.8585 -1.0888 0.0 0
M  V30 17 C -5.3969 2.7694 0.0 0
M  V30 18 C 5.1484 -1.4439 0.0 0
M  V30 19 C 6.4503 0.8048 0.0 0
M  V30 20 C -4.8643 -2.1895 0.0 0
M  V30 21 C -7.3379 -1.3847 0.0 0
M  V30 22 C 6.4384 -2.1777 0.0 0
M  V30 23 C 7.7403 0.071 0.0 0
M  V30 24 C -5.3377 -3.6098 0.0 0
M  V30 25 C -7.8114 -2.805 0.0 0
M  V30 26 C 7.7285 -1.4202 0.0 0
M  V30 27 C -6.8172 -3.9057 0.0 0
M  V30 28 N 9.0186 -2.154 0.0 0 CHG=1
M  V30 29 O 9.0067 -3.6453 0.0 0
M  V30 30 O 10.3086 -1.3965 0.0 0 CHG=-1
M  V30 END ATOM
M  V30 BEGIN BOND
M  V30 1 1 1 2
M  V30 2 1 1 3
M  V30 3 2 2 4
M  V30 4 1 2 5
M  V30 5 1 3 6
M  V30 6 1 4 7
M  V30 7 1 5 8
M  V30 8 2 6 9
M  V30 9 1 6 10
M  V30 10 1 7 11
M  V30 11 2 7 12
M  V30 12 2 8 13
M  V30 13 1 10 14
M  V30 14 1 11 15
M  V30 15 1 11 16
M  V30 16 1 12 17
M  V30 17 2 14 18
M  V30 18 1 14 19
M  V30 19 2 16 20
M  V30 20 1 16 21
M  V30 21 1 18 22
M  V30 22 2 19 23
M  V30 23 1 20 24
M  V30 24 2 21 25
M  V30 25 2 22 26
M  V30 26 2 24 27
M  V30 27 1 26 28
M  V30 28 2 28 29
M  V30 29 1 28 30
M  V30 30 1 8 12
M  V30 31 2 15 17
M  V30 32 1 23 26
M  V30 33 1 25 27
M  V30 END BOND
M  V30 END CTAB
M  END
>  <Structure No>
571

>  <Catalog ID>
Z15383835

>  <MW (desalted)>
422.417

>  <ClogP>
2.742

>  <HBD>
2

>  <TPSA>
131.520

>  <RotBonds>
6

>  <Target>
parp10

>  <fromRegid>


>  <Similarity>


$$$$
Compound 572
Actelion Java MolfileCreator 2.0

  0  0  0  0  0  0              0 V3000
M  V30 BEGIN CTAB
M  V30 COUNTS 32 35 0 0 0
M  V30 BEGIN ATOM
M  V30 1 S 0.0 0.0 0.0 0
M  V30 2 C -1.3132 0.7571 0.0 0
M  V30 3 C 1.2895 0.7571 0.0 0 CFG=2
M  V30 4 N -2.6264 0.0236 0.0 0
M  V30 5 N -1.325 2.2715 0.0 0
M  V30 6 C 2.5791 0.0236 0.0 0
M  V30 7 C 1.2777 2.2715 0.0 0
M  V30 8 C -3.9397 0.7808 0.0 0
M  V30 9 C -2.6383 3.0287 0.0 0
M  V30 10 O 2.5673 -1.467 0.0 0
M  V30 11 N 3.8687 0.7808 0.0 0
M  V30 12 N -5.3831 0.3312 0.0 0
M  V30 13 C -3.9515 2.2952 0.0 0
M  V30 14 O -2.6501 4.5431 0.0 0
M  V30 15 C 5.1583 0.0473 0.0 0
M  V30 16 N -6.2822 1.5616 0.0 0
M  V30 17 C -5.8563 -1.0884 0.0 0
M  V30 18 C -5.3949 2.7684 0.0 0
M  V30 19 C 6.4479 0.8045 0.0 0
M  V30 20 C 5.1465 -1.4433 0.0 0
M  V30 21 C -4.8625 -2.1887 0.0 0
M  V30 22 C -7.3352 -1.3842 0.0 0
M  V30 23 C 7.7375 0.0709 0.0 0
M  V30 24 C 6.436 -2.1769 0.0 0
M  V30 25 C -5.3358 -3.6084 0.0 0
M  V30 26 C -7.8084 -2.8039 0.0 0
M  V30 27 C 7.7256 -1.4197 0.0 0
M  V30 28 C -6.8146 -3.9042 0.0 0
M  V30 29 N 9.0152 -2.1532 0.0 0
M  V30 30 C 9.0034 -3.6439 0.0 0
M  V30 31 O 10.293 -4.3893 0.0 0
M  V30 32 C 7.6901 -4.3893 0.0 0
M  V30 END ATOM
M  V30 BEGIN BOND
M  V30 1 1 1 2
M  V30 2 1 3 1 CFG=1
M  V30 3 2 2 4
M  V30 4 1 2 5
M  V30 5 1 3 6
M  V30 6 1 3 7
M  V30 7 1 4 8
M  V30 8 1 5 9
M  V30 9 2 6 10
M  V30 10 1 6 11
M  V30 11 1 8 12
M  V30 12 2 8 13
M  V30 13 2 9 14
M  V30 14 1 11 15
M  V30 15 1 12 16
M  V30 16 1 12 17
M  V30 17 1 13 18
M  V30 18 2 15 19
M  V30 19 1 15 20
M  V30 20 2 17 21
M  V30 21 1 17 22
M  V30 22 1 19 23
M  V30 23 2 20 24
M  V30 24 1 21 25
M  V30 25 2 22 26
M  V30 26 2 23 27
M  V30 27 2 25 28
M  V30 28 1 27 29
M  V30 29 1 29 30
M  V30 30 2 30 31
M  V30 31 1 30 32
M  V30 32 1 9 13
M  V30 33 2 16 18
M  V30 34 1 24 27
M  V30 35 1 26 28
M  V30 END BOND
M  V30 BEGIN COLLECTION
M  V30 MDLV30/STERAC1 ATOMS=(1 3)
M  V30 END COLLECTION
M  V30 END CTAB
M  END
>  <Structure No>
572

>  <Catalog ID>
Z15383005

>  <MW (desalted)>
448.498

>  <ClogP>
1.775

>  <HBD>
3

>  <TPSA>
117.480

>  <RotBonds>
6

>  <Target>
parp10

>  <fromRegid>


>  <Similarity>


$$$$
Compound 573
Actelion Java MolfileCreator 2.0

  0  0  0  0  0  0              0 V3000
M  V30 BEGIN CTAB
M  V30 COUNTS 31 34 0 0 0
M  V30 BEGIN ATOM
M  V30 1 S 0.0 0.0 0.0 0
M  V30 2 C -1.3132 0.7571 0.0 0
M  V30 3 C -0.0118 -1.4906 0.0 0 CFG=2
M  V30 4 N -2.6264 0.0236 0.0 0
M  V30 5 N -1.325 2.2714 0.0 0
M  V30 6 C 1.2777 -2.2241 0.0 0
M  V30 7 C -1.325 -2.2241 0.0 0
M  V30 8 C -3.9396 0.7808 0.0 0
M  V30 9 C -2.6382 3.0286 0.0 0
M  V30 10 O 2.5672 -1.467 0.0 0
M  V30 11 N 1.2658 -3.7148 0.0 0
M  V30 12 N -5.3829 0.3312 0.0 0
M  V30 13 C -3.9514 2.2951 0.0 0
M  V30 14 O -2.65 4.5429 0.0 0
M  V30 15 C 2.5554 -4.4601 0.0 0
M  V30 16 N -6.282 1.5616 0.0 0
M  V30 17 C -5.8561 -1.0884 0.0 0
M  V30 18 C -5.3947 2.7683 0.0 0
M  V30 19 C 2.5435 -5.9508 0.0 0
M  V30 20 C 3.8449 -3.7029 0.0 0
M  V30 21 C -4.8624 -2.1886 0.0 0
M  V30 22 C -7.335 -1.3841 0.0 0
M  V30 23 C 3.8331 -6.6961 0.0 0
M  V30 24 C 5.1345 -4.4483 0.0 0
M  V30 25 C -5.3356 -3.6083 0.0 0
M  V30 26 C -7.8082 -2.8038 0.0 0
M  V30 27 N 3.8213 -8.1868 0.0 0 CHG=1
M  V30 28 C 5.1226 -5.9271 0.0 0
M  V30 29 C -6.8144 -3.9041 0.0 0
M  V30 30 O 5.1108 -8.9203 0.0 0
M  V30 31 O 2.508 -8.9203 0.0 0 CHG=-1
M  V30 END ATOM
M  V30 BEGIN BOND
M  V30 1 1 1 2
M  V30 2 1 3 1 CFG=3
M  V30 3 2 2 4
M  V30 4 1 2 5
M  V30 5 1 3 6
M  V30 6 1 3 7
M  V30 7 1 4 8
M  V30 8 1 5 9
M  V30 9 2 6 10
M  V30 10 1 6 11
M  V30 11 1 8 12
M  V30 12 2 8 13
M  V30 13 2 9 14
M  V30 14 1 11 15
M  V30 15 1 12 16
M  V30 16 1 12 17
M  V30 17 1 13 18
M  V30 18 2 15 19
M  V30 19 1 15 20
M  V30 20 2 17 21
M  V30 21 1 17 22
M  V30 22 1 19 23
M  V30 23 2 20 24
M  V30 24 1 21 25
M  V30 25 2 22 26
M  V30 26 1 23 27
M  V30 27 2 23 28
M  V30 28 2 25 29
M  V30 29 2 27 30
M  V30 30 1 27 31
M  V30 31 1 9 13
M  V30 32 2 16 18
M  V30 33 1 24 28
M  V30 34 1 26 29
M  V30 END BOND
M  V30 BEGIN COLLECTION
M  V30 MDLV30/STERAC1 ATOMS=(1 3)
M  V30 END COLLECTION
M  V30 END CTAB
M  END
>  <Structure No>
573

>  <Catalog ID>
Z15383009

>  <MW (desalted)>
436.444

>  <ClogP>
3.051

>  <HBD>
2

>  <TPSA>
131.520

>  <RotBonds>
6

>  <Target>
parp10

>  <fromRegid>


>  <Similarity>


$$$$
Compound 574
Actelion Java MolfileCreator 2.0

  0  0  0  0  0  0              0 V3000
M  V30 BEGIN CTAB
M  V30 COUNTS 31 34 0 0 0
M  V30 BEGIN ATOM
M  V30 1 S 0.0 0.0 0.0 0
M  V30 2 C -1.3132 0.7571 0.0 0
M  V30 3 C -0.0118 -1.4906 0.0 0 CFG=2
M  V30 4 N -2.6264 0.0236 0.0 0
M  V30 5 N -1.325 2.2714 0.0 0
M  V30 6 C 1.2777 -2.2241 0.0 0
M  V30 7 C -1.325 -2.2241 0.0 0
M  V30 8 C -3.9396 0.7808 0.0 0
M  V30 9 C -2.6382 3.0286 0.0 0
M  V30 10 O 2.5672 -1.467 0.0 0
M  V30 11 N 1.2658 -3.7148 0.0 0
M  V30 12 N -5.3829 0.3312 0.0 0
M  V30 13 C -3.9514 2.2951 0.0 0
M  V30 14 O -2.65 4.5429 0.0 0
M  V30 15 C 2.5554 -4.4601 0.0 0
M  V30 16 N -6.282 1.5616 0.0 0
M  V30 17 C -5.8561 -1.0884 0.0 0
M  V30 18 C -5.3947 2.7683 0.0 0
M  V30 19 C 2.5435 -5.9508 0.0 0
M  V30 20 C 3.8449 -3.7029 0.0 0
M  V30 21 C -4.8624 -2.1886 0.0 0
M  V30 22 C -7.335 -1.3841 0.0 0
M  V30 23 C 3.8331 -6.6961 0.0 0
M  V30 24 C 5.1345 -4.4483 0.0 0
M  V30 25 C -5.3356 -3.6083 0.0 0
M  V30 26 C -7.8082 -2.8038 0.0 0
M  V30 27 C 3.8213 -8.1868 0.0 0
M  V30 28 C 5.1226 -5.9271 0.0 0
M  V30 29 C -6.8144 -3.9041 0.0 0
M  V30 30 O 5.1108 -8.9203 0.0 0
M  V30 31 C 2.508 -8.9203 0.0 0
M  V30 END ATOM
M  V30 BEGIN BOND
M  V30 1 1 1 2
M  V30 2 1 3 1 CFG=3
M  V30 3 2 2 4
M  V30 4 1 2 5
M  V30 5 1 3 6
M  V30 6 1 3 7
M  V30 7 1 4 8
M  V30 8 1 5 9
M  V30 9 2 6 10
M  V30 10 1 6 11
M  V30 11 1 8 12
M  V30 12 2 8 13
M  V30 13 2 9 14
M  V30 14 1 11 15
M  V30 15 1 12 16
M  V30 16 1 12 17
M  V30 17 1 13 18
M  V30 18 2 15 19
M  V30 19 1 15 20
M  V30 20 2 17 21
M  V30 21 1 17 22
M  V30 22 1 19 23
M  V30 23 2 20 24
M  V30 24 1 21 25
M  V30 25 2 22 26
M  V30 26 1 23 27
M  V30 27 2 23 28
M  V30 28 2 25 29
M  V30 29 2 27 30
M  V30 30 1 27 31
M  V30 31 1 9 13
M  V30 32 2 16 18
M  V30 33 1 24 28
M  V30 34 1 26 29
M  V30 END BOND
M  V30 BEGIN COLLECTION
M  V30 MDLV30/STERAC1 ATOMS=(1 3)
M  V30 END COLLECTION
M  V30 END CTAB
M  END
>  <Structure No>
574

>  <Catalog ID>
Z15383014

>  <MW (desalted)>
433.483

>  <ClogP>
2.665

>  <HBD>
2

>  <TPSA>
105.450

>  <RotBonds>
6

>  <Target>
parp14, parp2

>  <fromRegid>


>  <Similarity>


$$$$
Compound 575
Actelion Java MolfileCreator 2.0

  0  0  0  0  0  0              0 V3000
M  V30 BEGIN CTAB
M  V30 COUNTS 29 32 0 0 0
M  V30 BEGIN ATOM
M  V30 1 S 0.0 0.0 0.0 0
M  V30 2 C -1.3129 0.757 0.0 0
M  V30 3 C 1.2893 0.757 0.0 0 CFG=2
M  V30 4 N -2.6259 0.0236 0.0 0
M  V30 5 N -1.3248 2.2711 0.0 0
M  V30 6 C 2.5786 0.0236 0.0 0
M  V30 7 C 1.2774 2.2711 0.0 0
M  V30 8 C -3.9389 0.7806 0.0 0
M  V30 9 C -2.6377 3.0281 0.0 0
M  V30 10 O 2.5668 -1.4667 0.0 0
M  V30 11 N 3.8679 0.7806 0.0 0
M  V30 12 N -5.382 0.3312 0.0 0
M  V30 13 C -3.9507 2.2947 0.0 0
M  V30 14 O -2.6496 4.5422 0.0 0
M  V30 15 C 5.1572 0.0473 0.0 0
M  V30 16 N -6.281 1.5613 0.0 0
M  V30 17 C -5.8551 -1.0882 0.0 0
M  V30 18 C -5.3938 2.7679 0.0 0
M  V30 19 C 6.4466 0.8043 0.0 0
M  V30 20 C 5.1454 -1.443 0.0 0
M  V30 21 C -4.8615 -2.1882 0.0 0
M  V30 22 C -7.3337 -1.3839 0.0 0
M  V30 23 C 7.7359 0.0709 0.0 0
M  V30 24 C 6.4347 -2.1764 0.0 0
M  V30 25 C -5.3347 -3.6077 0.0 0
M  V30 26 C -7.8069 -2.8033 0.0 0
M  V30 27 C 7.7241 -1.4194 0.0 0
M  V30 28 C -6.8133 -3.9034 0.0 0
M  V30 29 F 9.0134 -2.1528 0.0 0
M  V30 END ATOM
M  V30 BEGIN BOND
M  V30 1 1 1 2
M  V30 2 1 3 1 CFG=1
M  V30 3 2 2 4
M  V30 4 1 2 5
M  V30 5 1 3 6
M  V30 6 1 3 7
M  V30 7 1 4 8
M  V30 8 1 5 9
M  V30 9 2 6 10
M  V30 10 1 6 11
M  V30 11 1 8 12
M  V30 12 2 8 13
M  V30 13 2 9 14
M  V30 14 1 11 15
M  V30 15 1 12 16
M  V30 16 1 12 17
M  V30 17 1 13 18
M  V30 18 2 15 19
M  V30 19 1 15 20
M  V30 20 2 17 21
M  V30 21 1 17 22
M  V30 22 1 19 23
M  V30 23 2 20 24
M  V30 24 1 21 25
M  V30 25 2 22 26
M  V30 26 2 23 27
M  V30 27 2 25 28
M  V30 28 1 27 29
M  V30 29 1 9 13
M  V30 30 2 16 18
M  V30 31 1 24 27
M  V30 32 1 26 28
M  V30 END BOND
M  V30 BEGIN COLLECTION
M  V30 MDLV30/STERAC1 ATOMS=(1 3)
M  V30 END COLLECTION
M  V30 END CTAB
M  END
>  <Structure No>
575

>  <Catalog ID>
Z15383459

>  <MW (desalted)>
409.437

>  <ClogP>
3.157

>  <HBD>
2

>  <TPSA>
88.380

>  <RotBonds>
5

>  <Target>
parp10

>  <fromRegid>


>  <Similarity>


$$$$
Compound 576
Actelion Java MolfileCreator 2.0

  0  0  0  0  0  0              0 V3000
M  V30 BEGIN CTAB
M  V30 COUNTS 32 35 0 0 0
M  V30 BEGIN ATOM
M  V30 1 S 0.0 0.0 0.0 0
M  V30 2 C -1.3074 0.7538 0.0 0
M  V30 3 C 1.2838 0.7538 0.0 0 CFG=2
M  V30 4 N -2.6148 0.0235 0.0 0
M  V30 5 N -1.3191 2.2614 0.0 0
M  V30 6 C 1.272 2.2614 0.0 0
M  V30 7 C 2.5677 0.0235 0.0 0
M  V30 8 C -3.9222 0.7773 0.0 0
M  V30 9 C -2.6266 3.0152 0.0 0
M  V30 10 O 2.5559 3.0152 0.0 0
M  V30 11 N -0.0353 3.0152 0.0 0
M  V30 12 N -5.3592 0.3297 0.0 0
M  V30 13 C -3.934 2.285 0.0 0
M  V30 14 O -2.6383 4.5229 0.0 0
M  V30 15 C -0.0471 4.5229 0.0 0
M  V30 16 N -6.2543 1.5547 0.0 0
M  V30 17 C -5.8303 -1.0836 0.0 0
M  V30 18 C -5.3709 2.7561 0.0 0
M  V30 19 C 1.2367 5.2767 0.0 0
M  V30 20 C -1.3545 5.2767 0.0 0
M  V30 21 C -4.8409 -2.179 0.0 0
M  V30 22 C -7.3026 -1.378 0.0 0
M  V30 23 C 1.2249 6.7844 0.0 0
M  V30 24 C -1.3663 6.7844 0.0 0
M  V30 25 C -5.3121 -3.5924 0.0 0
M  V30 26 C -7.7738 -2.7915 0.0 0
M  V30 27 O 2.5088 7.5382 0.0 0
M  V30 28 C -0.0824 7.5382 0.0 0
M  V30 29 O -2.6737 7.5382 0.0 0
M  V30 30 C -6.7844 -3.8869 0.0 0
M  V30 31 C 2.497 9.0458 0.0 0
M  V30 32 C -2.6854 9.0458 0.0 0
M  V30 END ATOM
M  V30 BEGIN BOND
M  V30 1 1 1 2
M  V30 2 1 3 1 CFG=3
M  V30 3 2 2 4
M  V30 4 1 2 5
M  V30 5 1 3 6
M  V30 6 1 3 7
M  V30 7 1 4 8
M  V30 8 1 5 9
M  V30 9 2 6 10
M  V30 10 1 6 11
M  V30 11 1 8 12
M  V30 12 2 8 13
M  V30 13 2 9 14
M  V30 14 1 11 15
M  V30 15 1 12 16
M  V30 16 1 12 17
M  V30 17 1 13 18
M  V30 18 2 15 19
M  V30 19 1 15 20
M  V30 20 2 17 21
M  V30 21 1 17 22
M  V30 22 1 19 23
M  V30 23 2 20 24
M  V30 24 1 21 25
M  V30 25 2 22 26
M  V30 26 1 23 27
M  V30 27 2 23 28
M  V30 28 1 24 29
M  V30 29 2 25 30
M  V30 30 1 27 31
M  V30 31 1 29 32
M  V30 32 1 9 13
M  V30 33 2 16 18
M  V30 34 1 24 28
M  V30 35 1 26 30
M  V30 END BOND
M  V30 BEGIN COLLECTION
M  V30 MDLV30/STERAC1 ATOMS=(1 3)
M  V30 END COLLECTION
M  V30 END CTAB
M  END
>  <Structure No>
576

>  <Catalog ID>
Z15383478

>  <MW (desalted)>
451.498

>  <ClogP>
2.857

>  <HBD>
2

>  <TPSA>
106.840

>  <RotBonds>
7

>  <Target>
parp14, parp2

>  <fromRegid>


>  <Similarity>


$$$$
Compound 577
Actelion Java MolfileCreator 2.0

  0  0  0  0  0  0              0 V3000
M  V30 BEGIN CTAB
M  V30 COUNTS 27 29 0 0 0
M  V30 BEGIN ATOM
M  V30 1 S 0.0 0.0 0.0 0
M  V30 2 C 1.2865 -0.7436 0.0 0
M  V30 3 C -1.3101 -0.7436 0.0 0
M  V30 4 N 2.5731 0.0236 0.0 0
M  V30 5 N 1.2747 -2.2308 0.0 0
M  V30 6 C -2.6203 0.0236 0.0 0
M  V30 7 C 3.8596 -0.7199 0.0 0
M  V30 8 C 2.5613 -2.9626 0.0 0
M  V30 9 O -2.6321 1.5344 0.0 0
M  V30 10 N -3.9304 -0.7199 0.0 0
M  V30 11 N 5.276 -0.2478 0.0 0
M  V30 12 C 3.8478 -2.2072 0.0 0
M  V30 13 O 2.5495 -4.4498 0.0 0
M  V30 14 C -5.2406 0.0472 0.0 0
M  V30 15 N 6.1494 -1.4518 0.0 0
M  V30 16 C 5.7245 1.1921 0.0 0
M  V30 17 C 5.2642 -2.6557 0.0 0
M  V30 18 O -5.2524 1.558 0.0 0
M  V30 19 N -6.5508 -0.6963 0.0 0
M  V30 20 C 4.7094 2.3134 0.0 0
M  V30 21 C 7.1763 1.5108 0.0 0
M  V30 22 C -7.8609 0.0708 0.0 0
M  V30 23 C 5.158 3.7534 0.0 0
M  V30 24 C 7.6249 2.9508 0.0 0
M  V30 25 C -9.1711 -0.6727 0.0 0
M  V30 26 C -7.8727 1.5816 0.0 0
M  V30 27 C 6.6098 4.0721 0.0 0
M  V30 END ATOM
M  V30 BEGIN BOND
M  V30 1 1 1 2
M  V30 2 1 1 3
M  V30 3 2 2 4
M  V30 4 1 2 5
M  V30 5 1 3 6
M  V30 6 1 4 7
M  V30 7 1 5 8
M  V30 8 2 6 9
M  V30 9 1 6 10
M  V30 10 1 7 11
M  V30 11 2 7 12
M  V30 12 2 8 13
M  V30 13 1 10 14
M  V30 14 1 11 15
M  V30 15 1 11 16
M  V30 16 1 12 17
M  V30 17 2 14 18
M  V30 18 1 14 19
M  V30 19 2 16 20
M  V30 20 1 16 21
M  V30 21 1 19 22
M  V30 22 1 20 23
M  V30 23 2 21 24
M  V30 24 1 22 25
M  V30 25 1 22 26
M  V30 26 2 23 27
M  V30 27 1 8 12
M  V30 28 2 15 17
M  V30 29 1 24 27
M  V30 END BOND
M  V30 END CTAB
M  END
>  <Structure No>
577

>  <Catalog ID>
Z15383066

>  <MW (desalted)>
386.428

>  <ClogP>
1.610

>  <HBD>
3

>  <TPSA>
117.480

>  <RotBonds>
5

>  <Target>
parp10

>  <fromRegid>


>  <Similarity>


$$$$
Compound 578
Actelion Java MolfileCreator 2.0

  0  0  0  0  0  0              0 V3000
M  V30 BEGIN CTAB
M  V30 COUNTS 28 30 0 0 0
M  V30 BEGIN ATOM
M  V30 1 S 0.0 0.0 0.0 0
M  V30 2 C 1.2881 -0.7327 0.0 0
M  V30 3 C -1.3118 -0.7327 0.0 0
M  V30 4 N 2.5763 0.0236 0.0 0
M  V30 5 N 1.2763 -2.2218 0.0 0
M  V30 6 C -2.6236 0.0236 0.0 0
M  V30 7 C 3.8645 -0.709 0.0 0
M  V30 8 C 2.5645 -2.9545 0.0 0
M  V30 9 O -2.6354 1.5363 0.0 0
M  V30 10 N -3.9354 -0.709 0.0 0
M  V30 11 N 5.2826 -0.2363 0.0 0
M  V30 12 C 3.8527 -2.1981 0.0 0
M  V30 13 O 2.5527 -4.4436 0.0 0
M  V30 14 C -5.2472 0.0472 0.0 0
M  V30 15 N 6.1572 -1.4418 0.0 0
M  V30 16 C 5.7317 1.2054 0.0 0
M  V30 17 C 5.2708 -2.6472 0.0 0
M  V30 18 O -5.259 1.5599 0.0 0
M  V30 19 N -6.559 -0.6854 0.0 0
M  V30 20 C 4.7154 2.3281 0.0 0
M  V30 21 C 7.1854 1.5245 0.0 0
M  V30 22 C -7.8708 0.0709 0.0 0
M  V30 23 C 5.1645 3.7699 0.0 0
M  V30 24 C 7.6344 2.9663 0.0 0
M  V30 25 C -9.1826 -0.6618 0.0 0
M  V30 26 C 6.6181 4.089 0.0 0
M  V30 27 O -10.4944 0.0945 0.0 0
M  V30 28 C -11.8062 -0.6381 0.0 0
M  V30 END ATOM
M  V30 BEGIN BOND
M  V30 1 1 1 2
M  V30 2 1 1 3
M  V30 3 2 2 4
M  V30 4 1 2 5
M  V30 5 1 3 6
M  V30 6 1 4 7
M  V30 7 1 5 8
M  V30 8 2 6 9
M  V30 9 1 6 10
M  V30 10 1 7 11
M  V30 11 2 7 12
M  V30 12 2 8 13
M  V30 13 1 10 14
M  V30 14 1 11 15
M  V30 15 1 11 16
M  V30 16 1 12 17
M  V30 17 2 14 18
M  V30 18 1 14 19
M  V30 19 2 16 20
M  V30 20 1 16 21
M  V30 21 1 19 22
M  V30 22 1 20 23
M  V30 23 2 21 24
M  V30 24 1 22 25
M  V30 25 2 23 26
M  V30 26 1 25 27
M  V30 27 1 27 28
M  V30 28 1 8 12
M  V30 29 2 15 17
M  V30 30 1 24 26
M  V30 END BOND
M  V30 END CTAB
M  END
>  <Structure No>
578

>  <Catalog ID>
Z15383495

>  <MW (desalted)>
402.428

>  <ClogP>
1.091

>  <HBD>
3

>  <TPSA>
126.710

>  <RotBonds>
7

>  <Target>
parp2

>  <fromRegid>


>  <Similarity>


$$$$
Compound 579
Actelion Java MolfileCreator 2.0

  0  0  0  0  0  0              0 V3000
M  V30 BEGIN CTAB
M  V30 COUNTS 34 38 0 0 0
M  V30 BEGIN ATOM
M  V30 1 S 0.0 0.0 0.0 0
M  V30 2 O 1.3548 -0.6008 0.0 0
M  V30 3 O -0.4712 -1.4137 0.0 0
M  V30 4 C -1.4726 0.318 0.0 0
M  V30 5 C 0.7304 1.3077 0.0 0
M  V30 6 C -1.6376 1.8143 0.0 0 CFG=2
M  V30 7 C -0.2827 2.4269 0.0 0
M  V30 8 N -2.9453 2.5683 0.0 0
M  V30 9 C -4.2531 1.8261 0.0 0
M  V30 10 C -2.9571 4.0763 0.0 0
M  V30 11 C -4.2648 0.3416 0.0 0
M  V30 12 C -5.5608 2.5801 0.0 0
M  V30 13 O -1.6729 4.8304 0.0 0
M  V30 14 C -4.2648 4.8304 0.0 0
M  V30 15 C -5.5726 -0.4005 0.0 0
M  V30 16 C -6.8686 1.8379 0.0 0
M  V30 17 S -4.2766 6.3384 0.0 0
M  V30 18 C -6.8803 0.3652 0.0 0
M  V30 19 C -5.5844 7.0924 0.0 0
M  V30 20 N -6.8921 6.3619 0.0 0
M  V30 21 N -5.5962 8.6004 0.0 0
M  V30 22 C -8.1999 7.116 0.0 0
M  V30 23 C -6.9039 9.3544 0.0 0
M  V30 24 N -9.6372 6.6683 0.0 0
M  V30 25 C -8.2116 8.624 0.0 0
M  V30 26 O -6.9157 10.8625 0.0 0
M  V30 27 N -10.5326 7.8935 0.0 0
M  V30 28 C -10.1085 5.2545 0.0 0
M  V30 29 C -9.649 9.0953 0.0 0
M  V30 30 C -9.1188 4.1588 0.0 0
M  V30 31 C -11.5811 4.96 0.0 0
M  V30 32 C -9.5901 2.745 0.0 0
M  V30 33 C -12.0524 3.5462 0.0 0
M  V30 34 C -11.0628 2.4505 0.0 0
M  V30 END ATOM
M  V30 BEGIN BOND
M  V30 1 2 1 2
M  V30 2 2 1 3
M  V30 3 1 1 4
M  V30 4 1 1 5
M  V30 5 1 4 6
M  V30 6 1 5 7
M  V30 7 1 6 8 CFG=1
M  V30 8 1 8 9
M  V30 9 1 8 10
M  V30 10 2 9 11
M  V30 11 1 9 12
M  V30 12 2 10 13
M  V30 13 1 10 14
M  V30 14 1 11 15
M  V30 15 2 12 16
M  V30 16 1 14 17
M  V30 17 2 15 18
M  V30 18 1 17 19
M  V30 19 2 19 20
M  V30 20 1 19 21
M  V30 21 1 20 22
M  V30 22 1 21 23
M  V30 23 1 22 24
M  V30 24 2 22 25
M  V30 25 2 23 26
M  V30 26 1 24 27
M  V30 27 1 24 28
M  V30 28 1 25 29
M  V30 29 2 28 30
M  V30 30 1 28 31
M  V30 31 1 30 32
M  V30 32 2 31 33
M  V30 33 2 32 34
M  V30 34 1 6 7
M  V30 35 1 16 18
M  V30 36 1 23 25
M  V30 37 2 27 29
M  V30 38 1 33 34
M  V30 END BOND
M  V30 BEGIN COLLECTION
M  V30 MDLV30/STERAC1 ATOMS=(1 6)
M  V30 END COLLECTION
M  V30 END CTAB
M  END
>  <Structure No>
579

>  <Catalog ID>
Z15383081

>  <MW (desalted)>
495.574

>  <ClogP>
1.473

>  <HBD>
1

>  <TPSA>
113.730

>  <RotBonds>
6

>  <Target>
parp2

>  <fromRegid>


>  <Similarity>


$$$$
Compound 580
Actelion Java MolfileCreator 2.0

  0  0  0  0  0  0              0 V3000
M  V30 BEGIN CTAB
M  V30 COUNTS 25 28 0 0 0
M  V30 BEGIN ATOM
M  V30 1 O 0.0 0.0 0.0 0
M  V30 2 C -0.0117 1.5102 0.0 0
M  V30 3 N -1.3214 2.2771 0.0 0
M  V30 4 C 1.2742 2.2771 0.0 0
M  V30 5 C -1.3332 3.7873 0.0 0
M  V30 6 C 1.2624 3.7873 0.0 0
M  V30 7 C 2.5603 1.5338 0.0 0
M  V30 8 N -0.0471 4.5543 0.0 0
M  V30 9 N -2.6429 4.5543 0.0 0
M  V30 10 C 2.5485 4.5543 0.0 0
M  V30 11 C 3.8463 2.3007 0.0 0
M  V30 12 C -4.0233 3.9525 0.0 0
M  V30 13 C -2.808 6.0527 0.0 0
M  V30 14 C 3.8345 3.8109 0.0 0
M  V30 15 C -4.3419 2.5013 0.0 0
M  V30 16 C -5.038 5.0734 0.0 0
M  V30 17 C -4.2829 6.3713 0.0 0
M  V30 18 C -3.2446 1.5102 0.0 0
M  V30 19 C -5.7813 2.0529 0.0 0
M  V30 20 O -4.9082 7.7517 0.0 0
M  V30 21 C -3.5632 0.0589 0.0 0
M  V30 22 C -6.0999 0.6017 0.0 0
M  V30 23 O -2.4659 -0.932 0.0 0
M  V30 24 C -5.0026 -0.3893 0.0 0
M  V30 25 C -2.7844 -2.3833 0.0 0
M  V30 END ATOM
M  V30 BEGIN BOND
M  V30 1 2 1 2
M  V30 2 1 2 3
M  V30 3 1 2 4
M  V30 4 1 3 5
M  V30 5 2 4 6
M  V30 6 1 4 7
M  V30 7 2 5 8
M  V30 8 1 5 9
M  V30 9 1 6 10
M  V30 10 2 7 11
M  V30 11 1 9 12
M  V30 12 1 9 13
M  V30 13 2 10 14
M  V30 14 1 12 15
M  V30 15 1 12 16
M  V30 16 1 13 17
M  V30 17 2 15 18
M  V30 18 1 15 19
M  V30 19 1 17 20
M  V30 20 1 18 21
M  V30 21 2 19 22
M  V30 22 1 21 23
M  V30 23 2 21 24
M  V30 24 1 23 25
M  V30 25 1 6 8
M  V30 26 1 11 14
M  V30 27 1 16 17
M  V30 28 1 22 24
M  V30 END BOND
M  V30 END CTAB
M  END
>  <Structure No>
580

>  <Catalog ID>
Z2000211190

>  <MW (desalted)>
337.372

>  <ClogP>
1.384

>  <HBD>
2

>  <TPSA>
74.160

>  <RotBonds>
3

>  <Target>
parp15

>  <fromRegid>


>  <Similarity>


$$$$
Compound 581
Actelion Java MolfileCreator 2.0

  0  0  0  0  0  0              0 V3000
M  V30 BEGIN CTAB
M  V30 COUNTS 25 27 0 0 0
M  V30 BEGIN ATOM
M  V30 1 O 0.0 0.0 0.0 0
M  V30 2 N -0.0118 -1.4878 0.0 0 CHG=1
M  V30 3 O 1.2752 -2.2199 0.0 0 CHG=-1
M  V30 4 C -1.3225 -2.2199 0.0 0
M  V30 5 C -2.6332 -1.4524 0.0 0
M  V30 6 C -1.3343 -3.7077 0.0 0
M  V30 7 C -3.9439 -2.1845 0.0 0
M  V30 8 C -2.645 -4.4516 0.0 0
M  V30 9 C -3.9557 -3.6723 0.0 0
M  V30 10 C -5.3845 -1.7121 0.0 0
M  V30 11 N -5.3963 -4.121 0.0 0
M  V30 12 C -6.2819 -2.9166 0.0 0
M  V30 13 C -7.7933 -2.9048 0.0 0
M  V30 14 O -8.549 -1.594 0.0 0
M  V30 15 N -8.549 -4.1918 0.0 0
M  V30 16 C -10.0605 -4.18 0.0 0
M  V30 17 C -7.8169 -5.4789 0.0 0
M  V30 18 C -10.828 -5.4671 0.0 0
M  V30 19 C -8.5727 -6.766 0.0 0
M  V30 20 N -10.0841 -6.7542 0.0 0
M  V30 21 C -10.8516 -8.0413 0.0 0
M  V30 22 C -10.1077 -9.3284 0.0 0
M  V30 23 N -10.8752 -10.6155 0.0 0
M  V30 24 C -10.1313 -11.9026 0.0 0
M  V30 25 C -12.3867 -10.6037 0.0 0
M  V30 END ATOM
M  V30 BEGIN BOND
M  V30 1 2 1 2
M  V30 2 1 2 3
M  V30 3 1 2 4
M  V30 4 2 4 5
M  V30 5 1 4 6
M  V30 6 1 5 7
M  V30 7 2 6 8
M  V30 8 2 7 9
M  V30 9 1 7 10
M  V30 10 1 9 11
M  V30 11 2 10 12
M  V30 12 1 12 13
M  V30 13 2 13 14
M  V30 14 1 13 15
M  V30 15 1 15 16
M  V30 16 1 15 17
M  V30 17 1 16 18
M  V30 18 1 17 19
M  V30 19 1 18 20
M  V30 20 1 20 21
M  V30 21 1 21 22
M  V30 22 1 22 23
M  V30 23 1 23 24
M  V30 24 1 23 25
M  V30 25 1 8 9
M  V30 26 1 11 12
M  V30 27 1 19 20
M  V30 END BOND
M  V30 END CTAB
M  END
>  <Structure No>
581

>  <Catalog ID>
Z777828898

>  <MW (desalted)>
345.396

>  <ClogP>
2.012

>  <HBD>
1

>  <TPSA>
85.720

>  <RotBonds>
5

>  <Target>
CHK2

>  <fromRegid>


>  <Similarity>


$$$$
Compound 582
Actelion Java MolfileCreator 2.0

  0  0  0  0  0  0              0 V3000
M  V30 BEGIN CTAB
M  V30 COUNTS 26 28 0 0 0
M  V30 BEGIN ATOM
M  V30 1 Cl 0.0 0.0 0.0 0
M  V30 2 C -1.5087 0.0117 0.0 0
M  V30 3 C -2.2748 1.3201 0.0 0
M  V30 4 C -2.2748 -1.2729 0.0 0
M  V30 5 Cl -1.5323 2.6284 0.0 0
M  V30 6 C -3.7836 1.3319 0.0 0
M  V30 7 S -1.5323 -2.5577 0.0 0
M  V30 8 C -3.7836 -1.2612 0.0 0
M  V30 9 C -4.5379 0.0471 0.0 0
M  V30 10 O -0.2475 -1.8034 0.0 0
M  V30 11 O -0.8015 -3.8425 0.0 0
M  V30 12 N -2.8406 -3.3003 0.0 0
M  V30 13 C -2.8524 -4.7855 0.0 0
M  V30 14 C -4.149 -2.5459 0.0 0
M  V30 15 C -4.1608 -5.528 0.0 0
M  V30 16 C -5.4573 -3.2885 0.0 0
M  V30 17 N -4.1725 -7.0132 0.0 0
M  V30 18 N -5.4691 -4.7619 0.0 0
M  V30 19 C -6.7657 -2.5341 0.0 0
M  V30 20 C -5.4809 -7.744 0.0 0
M  V30 21 C -6.7775 -5.5045 0.0 0
M  V30 22 C -6.7892 -6.9896 0.0 0
M  V30 23 C -5.7991 -9.1938 0.0 0
M  V30 24 O -8.0858 -4.7383 0.0 0
M  V30 25 S -7.909 -7.9797 0.0 0
M  V30 26 C -7.2961 -9.3352 0.0 0
M  V30 END ATOM
M  V30 BEGIN BOND
M  V30 1 1 1 2
M  V30 2 2 2 3
M  V30 3 1 2 4
M  V30 4 1 3 5
M  V30 5 1 3 6
M  V30 6 1 4 7
M  V30 7 2 4 8
M  V30 8 2 6 9
M  V30 9 2 7 10
M  V30 10 2 7 11
M  V30 11 1 7 12
M  V30 12 1 12 13
M  V30 13 1 12 14
M  V30 14 1 13 15
M  V30 15 1 14 16
M  V30 16 2 15 17
M  V30 17 1 15 18
M  V30 18 1 16 19
M  V30 19 1 17 20
M  V30 20 1 18 21
M  V30 21 2 20 22
M  V30 22 1 20 23
M  V30 23 2 21 24
M  V30 24 1 22 25
M  V30 25 2 23 26
M  V30 26 1 8 9
M  V30 27 1 21 22
M  V30 28 1 25 26
M  V30 END BOND
M  V30 END CTAB
M  END
>  <Structure No>
582

>  <Catalog ID>
Z223339442

>  <MW (desalted)>
432.345

>  <ClogP>
3.151

>  <HBD>
1

>  <TPSA>
78.840

>  <RotBonds>
5

>  <Target>
parp10

>  <fromRegid>


>  <Similarity>


$$$$
Compound 583
Actelion Java MolfileCreator 2.0

  0  0  0  0  0  0              0 V3000
M  V30 BEGIN CTAB
M  V30 COUNTS 24 26 0 0 0
M  V30 BEGIN ATOM
M  V30 1 S 0.0 0.0 0.0 0
M  V30 2 C -1.506 0.0117 0.0 0
M  V30 3 C 0.4471 1.4354 0.0 0
M  V30 4 N -1.9766 1.4472 0.0 0
M  V30 5 C -2.4002 -1.1883 0.0 0
M  V30 6 C -0.7765 2.3296 0.0 0
M  V30 7 C -1.8001 -2.5414 0.0 0
M  V30 8 C -3.8945 -1.0236 0.0 0
M  V30 9 C -0.7883 3.8356 0.0 0
M  V30 10 C -2.6943 -3.7415 0.0 0
M  V30 11 C -4.7887 -2.2237 0.0 0
M  V30 12 O 0.4941 4.5886 0.0 0
M  V30 13 N -2.0943 4.5886 0.0 0
M  V30 14 C -4.1886 -3.5768 0.0 0
M  V30 15 C -2.106 6.0947 0.0 0
M  V30 16 C -3.4003 3.8474 0.0 0
M  V30 17 O -5.0828 -4.7769 0.0 0
M  V30 18 C -3.4121 6.8477 0.0 0
M  V30 19 C -0.8236 6.8477 0.0 0
M  V30 20 C -4.7063 4.6004 0.0 0
M  V30 21 C -6.5771 -4.6122 0.0 0
M  V30 22 C -3.4238 8.3537 0.0 0
M  V30 23 C -0.8353 8.3537 0.0 0
M  V30 24 C -2.1413 9.1067 0.0 0
M  V30 END ATOM
M  V30 BEGIN BOND
M  V30 1 1 1 2
M  V30 2 1 1 3
M  V30 3 2 2 4
M  V30 4 1 2 5
M  V30 5 2 3 6
M  V30 6 2 5 7
M  V30 7 1 5 8
M  V30 8 1 6 9
M  V30 9 1 7 10
M  V30 10 2 8 11
M  V30 11 2 9 12
M  V30 12 1 9 13
M  V30 13 2 10 14
M  V30 14 1 13 15
M  V30 15 1 13 16
M  V30 16 1 14 17
M  V30 17 2 15 18
M  V30 18 1 15 19
M  V30 19 1 16 20
M  V30 20 1 17 21
M  V30 21 1 18 22
M  V30 22 2 19 23
M  V30 23 2 22 24
M  V30 24 1 4 6
M  V30 25 1 11 14
M  V30 26 1 23 24
M  V30 END BOND
M  V30 END CTAB
M  END
>  <Structure No>
583

>  <Catalog ID>
Z99077692

>  <MW (desalted)>
338.423

>  <ClogP>
3.746

>  <HBD>
0

>  <TPSA>
42.430

>  <RotBonds>
5

>  <Target>
Serine/threonine-protein kinase Chk1

>  <fromRegid>
CHEMBL2037093

>  <Similarity>
0.88

$$$$
Compound 584
Actelion Java MolfileCreator 2.0

  0  0  0  0  0  0              0 V3000
M  V30 BEGIN CTAB
M  V30 COUNTS 34 37 0 0 0
M  V30 BEGIN ATOM
M  V30 1 F 0.0 0.0 0.0 0
M  V30 2 C 0.8785 -1.2109 0.0 0
M  V30 3 C 2.3625 -1.0447 0.0 0
M  V30 4 C 0.2493 -2.5762 0.0 0
M  V30 5 C 3.241 -2.2557 0.0 0
M  V30 6 C 1.1278 -3.7872 0.0 0
M  V30 7 C 4.7251 -2.0894 0.0 0
M  V30 8 C 2.6118 -3.6209 0.0 0
M  V30 9 N 5.473 -0.7716 0.0 0
M  V30 10 C 5.7223 -3.1935 0.0 0
M  V30 11 N 6.9333 -1.0684 0.0 0
M  V30 12 C 7.0876 -2.5643 0.0 0
M  V30 13 C 8.3817 -3.3123 0.0 0
M  V30 14 C 9.6757 -2.5406 0.0 0
M  V30 15 C 10.9698 -3.2885 0.0 0
M  V30 16 C 12.2638 -2.5168 0.0 0
M  V30 17 C 13.5579 -3.2648 0.0 0
M  V30 18 N 14.852 -2.4931 0.0 0
M  V30 19 C 16.146 -3.241 0.0 0
M  V30 20 C 14.8401 -0.9735 0.0 0
M  V30 21 O 16.1342 -4.7369 0.0 0
M  V30 22 N 17.4401 -2.4693 0.0 0
M  V30 23 C 18.7341 -3.2173 0.0 0
M  V30 24 C 20.0282 -2.4456 0.0 0
M  V30 25 C 18.7223 -4.7132 0.0 0
M  V30 26 C 21.3223 -3.1935 0.0 0
M  V30 27 C 20.0163 -5.4611 0.0 0
M  V30 28 N 21.3104 -4.6894 0.0 0
M  V30 29 C 22.6045 -5.4374 0.0 0
M  V30 30 C 23.8985 -4.6776 0.0 0
M  V30 31 C 24.041 -3.1698 0.0 0
M  V30 32 C 25.2638 -5.283 0.0 0
M  V30 33 C 25.5012 -2.8493 0.0 0
M  V30 34 C 26.2611 -4.1552 0.0 0
M  V30 END ATOM
M  V30 BEGIN BOND
M  V30 1 1 1 2
M  V30 2 2 2 3
M  V30 3 1 2 4
M  V30 4 1 3 5
M  V30 5 2 4 6
M  V30 6 1 5 7
M  V30 7 2 5 8
M  V30 8 2 7 9
M  V30 9 1 7 10
M  V30 10 1 9 11
M  V30 11 2 10 12
M  V30 12 1 12 13
M  V30 13 1 13 14
M  V30 14 1 14 15
M  V30 15 1 15 16
M  V30 16 1 16 17
M  V30 17 1 17 18
M  V30 18 1 18 19
M  V30 19 1 18 20
M  V30 20 2 19 21
M  V30 21 1 19 22
M  V30 22 1 22 23
M  V30 23 1 23 24
M  V30 24 1 23 25
M  V30 25 1 24 26
M  V30 26 1 25 27
M  V30 27 1 26 28
M  V30 28 1 28 29
M  V30 29 1 29 30
M  V30 30 1 30 31
M  V30 31 1 30 32
M  V30 32 1 31 33
M  V30 33 1 32 34
M  V30 34 1 6 8
M  V30 35 1 11 12
M  V30 36 1 27 28
M  V30 37 1 33 34
M  V30 END BOND
M  V30 END CTAB
M  END
>  <Structure No>
584

>  <Catalog ID>
Z915257034

>  <MW (desalted)>
469.638

>  <ClogP>
4.856

>  <HBD>
2

>  <TPSA>
64.260

>  <RotBonds>
10

>  <Target>
CHK1

>  <fromRegid>


>  <Similarity>


$$$$
Compound 585
Actelion Java MolfileCreator 2.0

  0  0  0  0  0  0              0 V3000
M  V30 BEGIN CTAB
M  V30 COUNTS 31 35 0 0 0
M  V30 BEGIN ATOM
M  V30 1 O 0.0 0.0 0.0 0
M  V30 2 C -0.0118 -1.4915 0.0 0
M  V30 3 N 1.2784 -2.2373 0.0 0
M  V30 4 C -1.3258 -2.2373 0.0 0
M  V30 5 C 1.2666 -3.7289 0.0 0
M  V30 6 C 2.4386 -1.2903 0.0 0
M  V30 7 C -1.3376 -3.7289 0.0 0
M  V30 8 C -2.6398 -1.4679 0.0 0
M  V30 9 N -0.0473 -4.4747 0.0 0
M  V30 10 C 2.4267 -4.6523 0.0 0
M  V30 11 C 3.8946 -1.6099 0.0 0
M  V30 12 C -2.6516 -4.4747 0.0 0
M  V30 13 C -3.9538 -2.2136 0.0 0
M  V30 14 C 3.8828 -4.309 0.0 0
M  V30 15 C 4.5339 -2.9476 0.0 0
M  V30 16 C -3.9657 -3.7052 0.0 0
M  V30 17 C -5.2797 -4.451 0.0 0
M  V30 18 O -6.5937 -3.6815 0.0 0
M  V30 19 N -5.2915 -5.9426 0.0 0
M  V30 20 C -6.6055 -6.6765 0.0 0
M  V30 21 C -4.0012 -6.6765 0.0 0
M  V30 22 C -6.6173 -8.1681 0.0 0
M  V30 23 C -4.013 -8.1681 0.0 0
M  V30 24 N -5.327 -8.9139 0.0 0
M  V30 25 C -5.3389 -10.4055 0.0 0
M  V30 26 O -4.0485 -11.1394 0.0 0
M  V30 27 C -6.6529 -11.1394 0.0 0
M  V30 28 O -8.0379 -10.512 0.0 0
M  V30 29 C -6.8186 -12.6192 0.0 0
M  V30 30 C -9.056 -11.613 0.0 0
M  V30 31 C -8.2983 -12.9151 0.0 0
M  V30 END ATOM
M  V30 BEGIN BOND
M  V30 1 2 1 2
M  V30 2 1 2 3
M  V30 3 1 2 4
M  V30 4 1 3 5
M  V30 5 1 3 6
M  V30 6 2 4 7
M  V30 7 1 4 8
M  V30 8 2 5 9
M  V30 9 1 5 10
M  V30 10 1 6 11
M  V30 11 1 7 12
M  V30 12 2 8 13
M  V30 13 1 10 14
M  V30 14 1 11 15
M  V30 15 2 12 16
M  V30 16 1 16 17
M  V30 17 2 17 18
M  V30 18 1 17 19
M  V30 19 1 19 20
M  V30 20 1 19 21
M  V30 21 1 20 22
M  V30 22 1 21 23
M  V30 23 1 22 24
M  V30 24 1 24 25
M  V30 25 2 25 26
M  V30 26 1 25 27
M  V30 27 1 27 28
M  V30 28 2 27 29
M  V30 29 1 28 30
M  V30 30 1 29 31
M  V30 31 1 7 9
M  V30 32 1 13 16
M  V30 33 1 14 15
M  V30 34 1 23 24
M  V30 35 2 30 31
M  V30 END BOND
M  V30 END CTAB
M  END
>  <Structure No>
585

>  <Catalog ID>
Z30621241

>  <MW (desalted)>
420.461

>  <ClogP>
1.468

>  <HBD>
0

>  <TPSA>
86.430

>  <RotBonds>
2

>  <Target>
Poly [ADP-ribose] polymerase-1

>  <fromRegid>
CHEMBL3105398

>  <Similarity>
0.9

$$$$
Compound 586
Actelion Java MolfileCreator 2.0

  0  0  0  0  0  0              0 V3000
M  V30 BEGIN CTAB
M  V30 COUNTS 25 27 0 0 0
M  V30 BEGIN ATOM
M  V30 1 S 0.0 0.0 0.0 0
M  V30 2 C -1.2284 -0.8741 0.0 0
M  V30 3 C -0.4724 1.4411 0.0 0
M  V30 4 C -2.4569 0.0236 0.0 0
M  V30 5 C -1.2402 -2.3624 0.0 0 CFG=1
M  V30 6 C -1.9844 1.4529 0.0 0
M  V30 7 N -2.5514 -3.1066 0.0 0
M  V30 8 C 0.0472 -3.1066 0.0 0
M  V30 9 C -3.8626 -2.3388 0.0 0
M  V30 10 C 1.3347 -2.3388 0.0 0
M  V30 11 O -3.8744 -0.8268 0.0 0
M  V30 12 N -5.1738 -3.083 0.0 0
M  V30 13 O 1.3229 -0.8268 0.0 0
M  V30 14 N 2.6223 -3.083 0.0 0
M  V30 15 C 3.9098 -2.3152 0.0 0
M  V30 16 C 5.1974 -3.0594 0.0 0
M  V30 17 C 3.898 -0.8032 0.0 0
M  V30 18 C 6.4849 -2.2915 0.0 0
M  V30 19 C 5.1856 -0.0472 0.0 0
M  V30 20 N 7.7725 -3.0357 0.0 0
M  V30 21 C 6.4731 -0.7796 0.0 0
M  V30 22 C 7.9142 -4.5123 0.0 0
M  V30 23 C 9.1309 -2.4097 0.0 0
M  V30 24 N 9.3671 -4.8076 0.0 0
M  V30 25 C 10.1231 -3.5082 0.0 0
M  V30 END ATOM
M  V30 BEGIN BOND
M  V30 1 1 1 2
M  V30 2 1 1 3
M  V30 3 2 2 4
M  V30 4 1 2 5
M  V30 5 2 3 6
M  V30 6 1 5 7 CFG=3
M  V30 7 1 5 8
M  V30 8 1 7 9
M  V30 9 1 8 10
M  V30 10 2 9 11
M  V30 11 1 9 12
M  V30 12 2 10 13
M  V30 13 1 10 14
M  V30 14 1 14 15
M  V30 15 2 15 16
M  V30 16 1 15 17
M  V30 17 1 16 18
M  V30 18 2 17 19
M  V30 19 1 18 20
M  V30 20 2 18 21
M  V30 21 1 20 22
M  V30 22 1 20 23
M  V30 23 2 22 24
M  V30 24 2 23 25
M  V30 25 1 4 6
M  V30 26 1 19 21
M  V30 27 1 24 25
M  V30 END BOND
M  V30 BEGIN COLLECTION
M  V30 MDLV30/STERAC1 ATOMS=(1 5)
M  V30 END COLLECTION
M  V30 END CTAB
M  END
>  <Structure No>
586

>  <Catalog ID>
Z769573510

>  <MW (desalted)>
355.414

>  <ClogP>
1.673

>  <HBD>
3

>  <TPSA>
102.040

>  <RotBonds>
6

>  <Target>
CHK2

>  <fromRegid>


>  <Similarity>


$$$$
Compound 587
Actelion Java MolfileCreator 2.0

  0  0  0  0  0  0              0 V3000
M  V30 BEGIN CTAB
M  V30 COUNTS 23 25 0 0 0
M  V30 BEGIN ATOM
M  V30 1 O 0.0 0.0 0.0 0
M  V30 2 C 1.2876 0.7678 0.0 0
M  V30 3 N 1.2758 2.28 0.0 0
M  V30 4 C 2.5753 0.0236 0.0 0
M  V30 5 N 2.5635 3.0361 0.0 0
M  V30 6 C -0.0354 3.0361 0.0 0
M  V30 7 C 3.863 0.7915 0.0 0
M  V30 8 C 3.8512 2.3036 0.0 0
M  V30 9 C -1.3467 2.3036 0.0 0
M  V30 10 C 5.1389 3.0597 0.0 0
M  V30 11 C -2.658 3.0597 0.0 0
M  V30 12 C -1.3585 0.8151 0.0 0
M  V30 13 C 5.1271 4.5719 0.0 0
M  V30 14 C 6.4266 2.3273 0.0 0
M  V30 15 O -2.6699 4.5719 0.0 0
M  V30 16 C -3.9694 2.3273 0.0 0
M  V30 17 C -2.6699 0.0708 0.0 0
M  V30 18 C 6.4148 5.3398 0.0 0
M  V30 19 C 7.7143 3.0833 0.0 0
M  V30 20 C -1.3822 5.3398 0.0 0
M  V30 21 C -3.9812 0.8387 0.0 0
M  V30 22 C -2.6817 -1.4176 0.0 0
M  V30 23 C 7.7025 4.5955 0.0 0
M  V30 END ATOM
M  V30 BEGIN BOND
M  V30 1 2 1 2
M  V30 2 1 2 3
M  V30 3 1 2 4
M  V30 4 1 3 5
M  V30 5 1 3 6
M  V30 6 2 4 7
M  V30 7 2 5 8
M  V30 8 1 6 9
M  V30 9 1 8 10
M  V30 10 2 9 11
M  V30 11 1 9 12
M  V30 12 2 10 13
M  V30 13 1 10 14
M  V30 14 1 11 15
M  V30 15 1 11 16
M  V30 16 2 12 17
M  V30 17 1 13 18
M  V30 18 2 14 19
M  V30 19 1 15 20
M  V30 20 2 16 21
M  V30 21 1 17 22
M  V30 22 2 18 23
M  V30 23 1 7 8
M  V30 24 1 17 21
M  V30 25 1 19 23
M  V30 END BOND
M  V30 END CTAB
M  END
>  <Structure No>
587

>  <Catalog ID>
Z803257506

>  <MW (desalted)>
306.358

>  <ClogP>
3.511

>  <HBD>
0

>  <TPSA>
41.900

>  <RotBonds>
4

>  <Target>
Serine/threonine-protein kinase Chk1

>  <fromRegid>
CHEMBL1982993

>  <Similarity>
0.88

$$$$
Compound 588
Actelion Java MolfileCreator 2.0

  0  0  0  0  0  0              0 V3000
M  V30 BEGIN CTAB
M  V30 COUNTS 26 28 0 0 0
M  V30 BEGIN ATOM
M  V30 1 Cl 0.0 0.0 0.0 0
M  V30 2 C -0.0118 1.5157 0.0 0
M  V30 3 C -1.3262 2.2735 0.0 0
M  V30 4 C 1.2788 2.2735 0.0 0
M  V30 5 N -2.6406 1.5394 0.0 0
M  V30 6 C -1.3381 3.7893 0.0 0
M  V30 7 C 1.267 3.7893 0.0 0
M  V30 8 C -2.6525 0.0473 0.0 0
M  V30 9 C -0.0473 4.5471 0.0 0
M  V30 10 O -1.3617 -0.6868 0.0 0
M  V30 11 C -3.9669 -0.6868 0.0 0
M  V30 12 N -3.9787 -2.1788 0.0 0
M  V30 13 C -5.2931 -2.913 0.0 0
M  V30 14 C -2.688 -2.913 0.0 0
M  V30 15 C -5.305 -4.405 0.0 0
M  V30 16 C -2.6998 -4.405 0.0 0
M  V30 17 N -4.0143 -5.1392 0.0 0
M  V30 18 C -4.0261 -6.6312 0.0 0
M  V30 19 O -5.3405 -7.3654 0.0 0
M  V30 20 C -2.7354 -7.3654 0.0 0 CFG=1
M  V30 21 N -2.7472 -8.8575 0.0 0
M  V30 22 C -1.4446 -6.6076 0.0 0
M  V30 23 C -3.9787 -9.7337 0.0 0
M  V30 24 C -1.5394 -9.7337 0.0 0
M  V30 25 N -3.5287 -11.1547 0.0 0
M  V30 26 C -2.013 -11.1547 0.0 0
M  V30 END ATOM
M  V30 BEGIN BOND
M  V30 1 1 1 2
M  V30 2 2 2 3
M  V30 3 1 2 4
M  V30 4 1 3 5
M  V30 5 1 3 6
M  V30 6 2 4 7
M  V30 7 1 5 8
M  V30 8 2 6 9
M  V30 9 2 8 10
M  V30 10 1 8 11
M  V30 11 1 11 12
M  V30 12 1 12 13
M  V30 13 1 12 14
M  V30 14 1 13 15
M  V30 15 1 14 16
M  V30 16 1 15 17
M  V30 17 1 17 18
M  V30 18 2 18 19
M  V30 19 1 18 20
M  V30 20 1 20 21 CFG=3
M  V30 21 1 20 22
M  V30 22 1 21 23
M  V30 23 1 21 24
M  V30 24 2 23 25
M  V30 25 2 24 26
M  V30 26 1 7 9
M  V30 27 1 16 17
M  V30 28 1 25 26
M  V30 END BOND
M  V30 BEGIN COLLECTION
M  V30 MDLV30/STERAC1 ATOMS=(1 20)
M  V30 END COLLECTION
M  V30 END CTAB
M  END
>  <Structure No>
588

>  <Catalog ID>
Z415229776

>  <MW (desalted)>
375.853

>  <ClogP>
1.503

>  <HBD>
1

>  <TPSA>
70.470

>  <RotBonds>
5

>  <Target>
ATM

>  <fromRegid>


>  <Similarity>


$$$$
Compound 589
Actelion Java MolfileCreator 2.0

  0  0  0  0  0  0              0 V3000
M  V30 BEGIN CTAB
M  V30 COUNTS 29 31 0 0 0
M  V30 BEGIN ATOM
M  V30 1 S 0.0 0.0 0.0 0
M  V30 2 C -0.4709 -1.4129 0.0 0
M  V30 3 C -1.2245 0.8948 0.0 0
M  V30 4 N -1.978 -1.4011 0.0 0
M  V30 5 C 0.4003 -2.6138 0.0 0
M  V30 6 C -2.449 0.0235 0.0 0
M  V30 7 C -1.2362 2.4019 0.0 0
M  V30 8 N -0.2237 -3.9679 0.0 0
M  V30 9 C 1.8721 -2.449 0.0 0
M  V30 10 C -3.8855 0.4945 0.0 0
M  V30 11 O 0.047 3.1555 0.0 0
M  V30 12 N -2.5432 3.1555 0.0 0
M  V30 13 C 0.6475 -5.1689 0.0 0
M  V30 14 C 2.7434 -3.65 0.0 0
M  V30 15 C -2.555 4.6626 0.0 0 CFG=2
M  V30 16 C 2.1193 -5.004 0.0 0
M  V30 17 C -3.8619 5.4161 0.0 0
M  V30 18 C -1.2716 5.4161 0.0 0
M  V30 19 C -3.8737 6.9232 0.0 0
M  V30 20 C -5.1689 4.6861 0.0 0
M  V30 21 C -5.1806 7.6768 0.0 0
M  V30 22 C -6.4758 5.4397 0.0 0
M  V30 23 O -5.1924 9.1839 0.0 0
M  V30 24 C -6.4876 6.9468 0.0 0
M  V30 25 O -7.7827 4.7097 0.0 0
M  V30 26 C -6.4993 9.9492 0.0 0
M  V30 27 O -7.7945 7.7003 0.0 0
M  V30 28 C -9.0897 5.4632 0.0 0
M  V30 29 C -7.8063 9.2074 0.0 0
M  V30 END ATOM
M  V30 BEGIN BOND
M  V30 1 1 1 2
M  V30 2 1 1 3
M  V30 3 2 2 4
M  V30 4 1 2 5
M  V30 5 2 3 6
M  V30 6 1 3 7
M  V30 7 2 5 8
M  V30 8 1 5 9
M  V30 9 1 6 10
M  V30 10 2 7 11
M  V30 11 1 7 12
M  V30 12 1 8 13
M  V30 13 2 9 14
M  V30 14 1 15 12 CFG=3
M  V30 15 2 13 16
M  V30 16 1 15 17
M  V30 17 1 15 18
M  V30 18 2 17 19
M  V30 19 1 17 20
M  V30 20 1 19 21
M  V30 21 2 20 22
M  V30 22 1 21 23
M  V30 23 2 21 24
M  V30 24 1 22 25
M  V30 25 1 23 26
M  V30 26 1 24 27
M  V30 27 1 25 28
M  V30 28 1 27 29
M  V30 29 1 4 6
M  V30 30 1 14 16
M  V30 31 1 22 24
M  V30 END BOND
M  V30 BEGIN COLLECTION
M  V30 MDLV30/STERAC1 ATOMS=(1 15)
M  V30 END COLLECTION
M  V30 END CTAB
M  END
>  <Structure No>
589

>  <Catalog ID>
Z424414502

>  <MW (desalted)>
413.490

>  <ClogP>
2.594

>  <HBD>
1

>  <TPSA>
82.570

>  <RotBonds>
7

>  <Target>
Serine/threonine-protein kinase Chk1

>  <fromRegid>
CHEMBL1978567

>  <Similarity>
0.85

$$$$
Compound 590
Actelion Java MolfileCreator 2.0

  0  0  0  0  0  0              0 V3000
M  V30 BEGIN CTAB
M  V30 COUNTS 24 27 0 0 0
M  V30 BEGIN ATOM
M  V30 1 S 0.0 0.0 0.0 0
M  V30 2 C -1.3119 0.7564 0.0 0
M  V30 3 C 1.2883 0.7564 0.0 0 CFG=2
M  V30 4 N -2.6948 0.1536 0.0 0
M  V30 5 N -1.4774 2.2575 0.0 0
M  V30 6 C 2.5766 0.0236 0.0 0
M  V30 7 C 1.2765 2.2693 0.0 0
M  V30 8 C -3.7113 1.2765 0.0 0
M  V30 9 C -2.9548 2.5766 0.0 0
M  V30 10 C -0.3782 3.2739 0.0 0
M  V30 11 N 3.8649 0.78 0.0 0
M  V30 12 N 2.5648 -1.4656 0.0 0
M  V30 13 C -5.2242 1.2883 0.0 0
M  V30 14 C -3.7231 3.8886 0.0 0
M  V30 15 C 5.1532 0.0472 0.0 0
M  V30 16 C 3.8531 -2.2102 0.0 0
M  V30 17 C -5.9806 2.6002 0.0 0
M  V30 18 C -5.236 3.9004 0.0 0
M  V30 19 C 5.1414 -1.4419 0.0 0
M  V30 20 C 6.4416 0.8037 0.0 0
M  V30 21 O 3.8413 -3.6995 0.0 0
M  V30 22 C 6.4298 -2.1866 0.0 0
M  V30 23 C 7.7299 0.0709 0.0 0
M  V30 24 C 7.7181 -1.4301 0.0 0
M  V30 END ATOM
M  V30 BEGIN BOND
M  V30 1 1 1 2
M  V30 2 1 3 1 CFG=1
M  V30 3 2 2 4
M  V30 4 1 2 5
M  V30 5 1 3 6
M  V30 6 1 3 7
M  V30 7 1 4 8
M  V30 8 1 5 9
M  V30 9 1 5 10
M  V30 10 2 6 11
M  V30 11 1 6 12
M  V30 12 1 8 13
M  V30 13 1 9 14
M  V30 14 1 11 15
M  V30 15 1 12 16
M  V30 16 2 13 17
M  V30 17 2 14 18
M  V30 18 2 15 19
M  V30 19 1 15 20
M  V30 20 2 16 21
M  V30 21 1 19 22
M  V30 22 2 20 23
M  V30 23 2 22 24
M  V30 24 2 8 9
M  V30 25 1 16 19
M  V30 26 1 17 18
M  V30 27 1 23 24
M  V30 END BOND
M  V30 BEGIN COLLECTION
M  V30 MDLV30/STERAC1 ATOMS=(1 3)
M  V30 END COLLECTION
M  V30 END CTAB
M  END
>  <Structure No>
590

>  <Catalog ID>
Z15479257

>  <MW (desalted)>
336.411

>  <ClogP>
2.766

>  <HBD>
1

>  <TPSA>
59.280

>  <RotBonds>
3

>  <Target>
parp10

>  <fromRegid>


>  <Similarity>


$$$$
Compound 591
Actelion Java MolfileCreator 2.0

  0  0  0  0  0  0              0 V3000
M  V30 BEGIN CTAB
M  V30 COUNTS 25 27 0 0 0
M  V30 BEGIN ATOM
M  V30 1 O 0.0 0.0 0.0 0
M  V30 2 C 1.2842 0.754 0.0 0
M  V30 3 N 2.5684 0.0235 0.0 0
M  V30 4 C 1.2724 2.2621 0.0 0
M  V30 5 C 3.8526 0.7775 0.0 0
M  V30 6 C 2.5566 3.0279 0.0 0
M  V30 7 C -0.0353 3.0279 0.0 0
M  V30 8 N 5.2664 0.3298 0.0 0
M  V30 9 C 3.8408 2.2856 0.0 0
M  V30 10 C 2.5448 4.5359 0.0 0
M  V30 11 C -1.3431 2.2856 0.0 0
M  V30 12 N 6.1383 1.5551 0.0 0
M  V30 13 C 5.7141 -1.0839 0.0 0
M  V30 14 C 5.2546 2.7569 0.0 0
M  V30 15 C -2.6509 3.0514 0.0 0
M  V30 16 C 5.7023 4.1943 0.0 0
M  V30 17 O -2.6626 4.5595 0.0 0
M  V30 18 N -3.9586 2.3092 0.0 0
M  V30 19 C -5.2664 3.075 0.0 0
M  V30 20 N -6.6449 2.4741 0.0 0
M  V30 21 C -5.4314 4.5713 0.0 0
M  V30 22 N -7.6581 3.5934 0.0 0
M  V30 23 C -6.963 1.025 0.0 0
M  V30 24 C -6.9041 4.8894 0.0 0
M  V30 25 C -7.5285 6.2679 0.0 0
M  V30 END ATOM
M  V30 BEGIN BOND
M  V30 1 2 1 2
M  V30 2 1 2 3
M  V30 3 1 2 4
M  V30 4 1 3 5
M  V30 5 2 4 6
M  V30 6 1 4 7
M  V30 7 1 5 8
M  V30 8 2 5 9
M  V30 9 1 6 10
M  V30 10 1 7 11
M  V30 11 1 8 12
M  V30 12 1 8 13
M  V30 13 1 9 14
M  V30 14 1 11 15
M  V30 15 1 14 16
M  V30 16 2 15 17
M  V30 17 1 15 18
M  V30 18 1 18 19
M  V30 19 1 19 20
M  V30 20 2 19 21
M  V30 21 1 20 22
M  V30 22 1 20 23
M  V30 23 1 21 24
M  V30 24 1 24 25
M  V30 25 1 6 9
M  V30 26 2 12 14
M  V30 27 2 22 24
M  V30 END BOND
M  V30 END CTAB
M  END
>  <Structure No>
591

>  <Catalog ID>
Z372550618

>  <MW (desalted)>
342.396

>  <ClogP>
-0.064

>  <HBD>
2

>  <TPSA>
93.840

>  <RotBonds>
4

>  <Target>
Poly [ADP-ribose] polymerase-1

>  <fromRegid>
CHEMBL508796

>  <Similarity>
0.9

$$$$
Compound 592
Actelion Java MolfileCreator 2.0

  0  0  0  0  0  0              0 V3000
M  V30 BEGIN CTAB
M  V30 COUNTS 27 30 0 0 0
M  V30 BEGIN ATOM
M  V30 1 O 0.0 0.0 0.0 0
M  V30 2 C -0.0118 -1.4974 0.0 0
M  V30 3 N -1.331 -2.2342 0.0 0
M  V30 4 C 1.2835 -2.2342 0.0 0
M  V30 5 N -1.3429 -3.7316 0.0 0
M  V30 6 C 1.2716 -3.7316 0.0 0
M  V30 7 C 2.5788 -1.4736 0.0 0
M  V30 8 C -0.0475 -4.4684 0.0 0
M  V30 9 C 2.567 -4.4684 0.0 0
M  V30 10 C 3.8742 -2.2104 0.0 0
M  V30 11 C -0.0594 -5.9659 0.0 0
M  V30 12 C 3.8623 -3.7079 0.0 0
M  V30 13 C 1.2359 -6.7146 0.0 0
M  V30 14 O 2.5313 -5.954 0.0 0
M  V30 15 N 1.224 -8.212 0.0 0
M  V30 16 C 2.5194 -8.9488 0.0 0
M  V30 17 C 2.5075 -10.4463 0.0 0
M  V30 18 C 1.1884 -11.195 0.0 0
M  V30 19 C 3.8029 -11.195 0.0 0
M  V30 20 N 1.1765 -12.6924 0.0 0
M  V30 21 C 3.791 -12.6924 0.0 0
M  V30 22 C 2.4719 -13.4292 0.0 0
M  V30 23 N 2.46 -14.9266 0.0 0
M  V30 24 N 1.224 -15.8061 0.0 0
M  V30 25 C 3.6722 -15.8061 0.0 0
M  V30 26 C 1.6756 -17.2322 0.0 0
M  V30 27 N 3.1968 -17.2322 0.0 0
M  V30 END ATOM
M  V30 BEGIN BOND
M  V30 1 2 1 2
M  V30 2 1 2 3
M  V30 3 1 2 4
M  V30 4 1 3 5
M  V30 5 2 4 6
M  V30 6 1 4 7
M  V30 7 2 5 8
M  V30 8 1 6 9
M  V30 9 2 7 10
M  V30 10 1 8 11
M  V30 11 2 9 12
M  V30 12 1 11 13
M  V30 13 2 13 14
M  V30 14 1 13 15
M  V30 15 1 15 16
M  V30 16 1 16 17
M  V30 17 2 17 18
M  V30 18 1 17 19
M  V30 19 1 18 20
M  V30 20 2 19 21
M  V30 21 2 20 22
M  V30 22 1 22 23
M  V30 23 1 23 24
M  V30 24 1 23 25
M  V30 25 2 24 26
M  V30 26 2 25 27
M  V30 27 1 6 8
M  V30 28 1 10 12
M  V30 29 1 21 22
M  V30 30 1 26 27
M  V30 END BOND
M  V30 END CTAB
M  END
>  <Structure No>
592

>  <Catalog ID>
Z422220298

>  <MW (desalted)>
361.357

>  <ClogP>
-1.639

>  <HBD>
2

>  <TPSA>
114.160

>  <RotBonds>
5

>  <Target>
parp2, parp10

>  <fromRegid>


>  <Similarity>


$$$$
Compound 593
Actelion Java MolfileCreator 2.0

  0  0  0  0  0  0              0 V3000
M  V30 BEGIN CTAB
M  V30 COUNTS 23 25 0 0 0
M  V30 BEGIN ATOM
M  V30 1 S 0.0 0.0 0.0 0
M  V30 2 C 0.9868 1.1278 0.0 0
M  V30 3 C -1.3863 0.6226 0.0 0
M  V30 4 S 2.4672 0.9868 0.0 0
M  V30 5 N 0.2232 2.4437 0.0 0
M  V30 6 N -1.2453 2.1265 0.0 0
M  V30 7 N -2.7022 -0.1174 0.0 0
M  V30 8 C 3.3366 2.2087 0.0 0
M  V30 9 C -4.018 0.6461 0.0 0
M  V30 10 C 4.8169 2.0677 0.0 0
M  V30 11 C -5.3339 -0.0939 0.0 0
M  V30 12 N 5.6863 3.2896 0.0 0
M  V30 13 N 5.4161 0.7049 0.0 0
M  V30 14 C -6.6497 0.6696 0.0 0
M  V30 15 C 7.1667 3.1486 0.0 0
M  V30 16 C 6.8964 0.5639 0.0 0
M  V30 17 C -7.9656 -0.0704 0.0 0
M  V30 18 C 7.7658 1.7858 0.0 0
M  V30 19 C 8.0361 4.3705 0.0 0
M  V30 20 O 7.4956 -0.7989 0.0 0
M  V30 21 C 9.2462 1.6448 0.0 0
M  V30 22 C 9.5164 4.2295 0.0 0
M  V30 23 C 10.1156 2.8666 0.0 0
M  V30 END ATOM
M  V30 BEGIN BOND
M  V30 1 1 1 2
M  V30 2 1 1 3
M  V30 3 1 2 4
M  V30 4 2 2 5
M  V30 5 2 3 6
M  V30 6 1 3 7
M  V30 7 1 4 8
M  V30 8 1 7 9
M  V30 9 1 8 10
M  V30 10 1 9 11
M  V30 11 2 10 12
M  V30 12 1 10 13
M  V30 13 1 11 14
M  V30 14 1 12 15
M  V30 15 1 13 16
M  V30 16 1 14 17
M  V30 17 2 15 18
M  V30 18 1 15 19
M  V30 19 2 16 20
M  V30 20 1 18 21
M  V30 21 2 19 22
M  V30 22 2 21 23
M  V30 23 1 5 6
M  V30 24 1 16 18
M  V30 25 1 22 23
M  V30 END BOND
M  V30 END CTAB
M  END
>  <Structure No>
593

>  <Catalog ID>
Z15503352

>  <MW (desalted)>
347.458

>  <ClogP>
2.531

>  <HBD>
2

>  <TPSA>
79.270

>  <RotBonds>
7

>  <Target>
Tankyrase1

>  <fromRegid>


>  <Similarity>


$$$$
Compound 594
Actelion Java MolfileCreator 2.0

  0  0  0  0  0  0              0 V3000
M  V30 BEGIN CTAB
M  V30 COUNTS 24 27 0 0 0
M  V30 BEGIN ATOM
M  V30 1 S 0.0 0.0 0.0 0
M  V30 2 C 1.489 0.0118 0.0 0
M  V30 3 C -0.4727 -1.4181 0.0 0
M  V30 4 C 1.938 -1.4062 0.0 0
M  V30 5 C 0.7326 -2.2925 0.0 0
M  V30 6 C 3.3561 -1.8553 0.0 0 CFG=1
M  V30 7 N 4.5615 -0.9572 0.0 0
M  V30 8 C 3.8052 -3.2734 0.0 0
M  V30 9 C 4.5497 0.5554 0.0 0
M  V30 10 C 5.7669 -1.8317 0.0 0
M  V30 11 C 5.2942 -3.2616 0.0 0
M  V30 12 O 3.238 1.3235 0.0 0
M  V30 13 C 5.8378 1.3235 0.0 0
M  V30 14 C 5.826 2.8362 0.0 0
M  V30 15 N 4.5142 3.5925 0.0 0
M  V30 16 C 7.1141 3.5925 0.0 0
M  V30 17 N 4.5024 5.1051 0.0 0
M  V30 18 C 7.1023 5.1051 0.0 0
M  V30 19 C 8.4022 2.848 0.0 0
M  V30 20 C 5.7905 5.8614 0.0 0
M  V30 21 C 8.3904 5.8614 0.0 0
M  V30 22 C 9.6903 3.6043 0.0 0
M  V30 23 O 5.7787 7.3741 0.0 0
M  V30 24 C 9.6785 5.1288 0.0 0
M  V30 END ATOM
M  V30 BEGIN BOND
M  V30 1 1 1 2
M  V30 2 1 1 3
M  V30 3 2 2 4
M  V30 4 2 3 5
M  V30 5 1 6 4 CFG=1
M  V30 6 1 6 7
M  V30 7 1 6 8
M  V30 8 1 7 9
M  V30 9 1 7 10
M  V30 10 1 8 11
M  V30 11 2 9 12
M  V30 12 1 9 13
M  V30 13 1 13 14
M  V30 14 2 14 15
M  V30 15 1 14 16
M  V30 16 1 15 17
M  V30 17 2 16 18
M  V30 18 1 16 19
M  V30 19 1 17 20
M  V30 20 1 18 21
M  V30 21 2 19 22
M  V30 22 2 20 23
M  V30 23 2 21 24
M  V30 24 1 4 5
M  V30 25 1 10 11
M  V30 26 1 18 20
M  V30 27 1 22 24
M  V30 END BOND
M  V30 BEGIN COLLECTION
M  V30 MDLV30/STERAC1 ATOMS=(1 6)
M  V30 END COLLECTION
M  V30 END CTAB
M  END
>  <Structure No>
594

>  <Catalog ID>
Z424283758

>  <MW (desalted)>
339.411

>  <ClogP>
0.907

>  <HBD>
1

>  <TPSA>
61.770

>  <RotBonds>
3

>  <Target>
parp10

>  <fromRegid>


>  <Similarity>


$$$$
Compound 595
Actelion Java MolfileCreator 2.0

  0  0  0  0  0  0              0 V3000
M  V30 BEGIN CTAB
M  V30 COUNTS 34 37 0 0 0
M  V30 BEGIN ATOM
M  V30 1 Cl 0.0 0.0 0.0 0
M  V30 2 C 1.2868 -0.7437 0.0 0
M  V30 3 C 2.5737 0.0118 0.0 0
M  V30 4 C 1.275 -2.2313 0.0 0
M  V30 5 C 3.8605 -0.7319 0.0 0
M  V30 6 C 2.5618 -2.9751 0.0 0
M  V30 7 N 5.1474 0.0236 0.0 0
M  V30 8 C 3.8487 -2.2195 0.0 0
M  V30 9 C 5.1356 1.5347 0.0 0
M  V30 10 C 6.4342 -0.7201 0.0 0
M  V30 11 S 3.8251 2.2903 0.0 0
M  V30 12 N 6.4224 2.2903 0.0 0
M  V30 13 O 6.4224 -2.2077 0.0 0
M  V30 14 C 7.7211 0.0354 0.0 0
M  V30 15 C 3.8133 3.8015 0.0 0 CFG=2
M  V30 16 C 7.7093 1.5583 0.0 0
M  V30 17 C 9.0079 -0.7083 0.0 0
M  V30 18 C 5.1001 4.5571 0.0 0
M  V30 19 C 2.5028 4.5571 0.0 0
M  V30 20 C 8.9961 2.3139 0.0 0
M  V30 21 C 10.2948 0.0472 0.0 0
M  V30 22 O 6.387 3.8251 0.0 0
M  V30 23 N 5.0883 6.0682 0.0 0
M  V30 24 C 10.283 1.582 0.0 0
M  V30 25 C 3.7779 6.8238 0.0 0
M  V30 26 C 2.4674 6.0918 0.0 0
M  V30 27 C 3.7661 8.335 0.0 0
M  V30 28 C 1.1569 6.8474 0.0 0
M  V30 29 C 2.4556 9.1024 0.0 0
M  V30 30 C 1.1451 8.3586 0.0 0
M  V30 31 N -0.1652 9.126 0.0 0
M  V30 32 C -0.177 10.6371 0.0 0
M  V30 33 O -1.4875 11.3927 0.0 0
M  V30 34 C 1.1097 11.3927 0.0 0
M  V30 END ATOM
M  V30 BEGIN BOND
M  V30 1 1 1 2
M  V30 2 2 2 3
M  V30 3 1 2 4
M  V30 4 1 3 5
M  V30 5 2 4 6
M  V30 6 1 5 7
M  V30 7 2 5 8
M  V30 8 1 7 9
M  V30 9 1 7 10
M  V30 10 1 9 11
M  V30 11 2 9 12
M  V30 12 2 10 13
M  V30 13 1 10 14
M  V30 14 1 15 11 CFG=1
M  V30 15 1 12 16
M  V30 16 1 14 17
M  V30 17 1 15 18
M  V30 18 1 15 19
M  V30 19 1 16 20
M  V30 20 2 17 21
M  V30 21 2 18 22
M  V30 22 1 18 23
M  V30 23 2 20 24
M  V30 24 1 23 25
M  V30 25 2 25 26
M  V30 26 1 25 27
M  V30 27 1 26 28
M  V30 28 2 27 29
M  V30 29 2 28 30
M  V30 30 1 30 31
M  V30 31 1 31 32
M  V30 32 2 32 33
M  V30 33 1 32 34
M  V30 34 1 6 8
M  V30 35 2 14 16
M  V30 36 1 21 24
M  V30 37 1 29 30
M  V30 END BOND
M  V30 BEGIN COLLECTION
M  V30 MDLV30/STERAC1 ATOMS=(1 15)
M  V30 END COLLECTION
M  V30 END CTAB
M  END
>  <Structure No>
595

>  <Catalog ID>
Z15505337

>  <MW (desalted)>
492.977

>  <ClogP>
4.382

>  <HBD>
2

>  <TPSA>
90.870

>  <RotBonds>
6

>  <Target>
Serine/threonine-protein kinase Chk1

>  <fromRegid>
CHEMBL461264

>  <Similarity>
0.85

$$$$
Compound 596
Actelion Java MolfileCreator 2.0

  0  0  0  0  0  0              0 V3000
M  V30 BEGIN CTAB
M  V30 COUNTS 30 33 0 0 0
M  V30 BEGIN ATOM
M  V30 1 Cl 0.0 0.0 0.0 0
M  V30 2 C 1.2882 -0.7445 0.0 0
M  V30 3 C 2.5764 0.0118 0.0 0
M  V30 4 C 1.2764 -2.2337 0.0 0
M  V30 5 C 3.8647 -0.7327 0.0 0
M  V30 6 C 2.5646 -2.9783 0.0 0
M  V30 7 N 5.1529 0.0236 0.0 0
M  V30 8 C 3.8529 -2.2219 0.0 0
M  V30 9 C 5.1411 1.5364 0.0 0
M  V30 10 C 6.4412 -0.7209 0.0 0
M  V30 11 S 3.8292 2.2928 0.0 0
M  V30 12 N 6.4294 2.2928 0.0 0
M  V30 13 O 6.4294 -2.2101 0.0 0
M  V30 14 C 7.7294 0.0354 0.0 0
M  V30 15 C 2.5174 1.56 0.0 0
M  V30 16 C 7.7176 1.56 0.0 0
M  V30 17 C 9.0177 -0.7091 0.0 0
M  V30 18 C 1.2055 2.3164 0.0 0
M  V30 19 C 9.0059 2.3164 0.0 0
M  V30 20 C 10.3059 0.0472 0.0 0
M  V30 21 O -0.1063 1.5837 0.0 0
M  V30 22 N 1.1936 3.8292 0.0 0
M  V30 23 C 10.2941 1.5837 0.0 0
M  V30 24 C -0.1181 4.5856 0.0 0
M  V30 25 C 2.4819 4.5856 0.0 0
M  V30 26 C -0.13 6.0984 0.0 0
M  V30 27 C 2.4701 6.0984 0.0 0
M  V30 28 C 1.1582 6.8548 0.0 0
M  V30 29 C -1.4418 6.8548 0.0 0
M  V30 30 C 3.7583 6.8548 0.0 0
M  V30 END ATOM
M  V30 BEGIN BOND
M  V30 1 1 1 2
M  V30 2 2 2 3
M  V30 3 1 2 4
M  V30 4 1 3 5
M  V30 5 2 4 6
M  V30 6 1 5 7
M  V30 7 2 5 8
M  V30 8 1 7 9
M  V30 9 1 7 10
M  V30 10 1 9 11
M  V30 11 2 9 12
M  V30 12 2 10 13
M  V30 13 1 10 14
M  V30 14 1 11 15
M  V30 15 1 12 16
M  V30 16 1 14 17
M  V30 17 1 15 18
M  V30 18 1 16 19
M  V30 19 2 17 20
M  V30 20 2 18 21
M  V30 21 1 18 22
M  V30 22 2 19 23
M  V30 23 1 22 24
M  V30 24 1 22 25
M  V30 25 1 24 26
M  V30 26 1 25 27
M  V30 27 1 26 28
M  V30 28 1 26 29
M  V30 29 1 27 30
M  V30 30 1 6 8
M  V30 31 2 14 16
M  V30 32 1 20 23
M  V30 33 1 27 28
M  V30 END BOND
M  V30 END CTAB
M  END
>  <Structure No>
596

>  <Catalog ID>
Z15506502

>  <MW (desalted)>
441.974

>  <ClogP>
5.455

>  <HBD>
0

>  <TPSA>
52.980

>  <RotBonds>
4

>  <Target>
Serine/threonine-protein kinase Chk1

>  <fromRegid>
CHEMBL460853

>  <Similarity>
0.88

$$$$
Compound 597
Actelion Java MolfileCreator 2.0

  0  0  0  0  0  0              0 V3000
M  V30 BEGIN CTAB
M  V30 COUNTS 24 26 0 0 0
M  V30 BEGIN ATOM
M  V30 1 Cl 0.0 0.0 0.0 0
M  V30 2 C 1.2904 -0.7458 0.0 0
M  V30 3 C 2.5809 0.0118 0.0 0
M  V30 4 C 1.2786 -2.2375 0.0 0
M  V30 5 C 3.8713 -0.734 0.0 0
M  V30 6 C 2.569 -2.9834 0.0 0
M  V30 7 N 5.1618 0.0236 0.0 0
M  V30 8 C 3.8595 -2.2257 0.0 0
M  V30 9 C 5.15 1.539 0.0 0
M  V30 10 C 6.4523 -0.7221 0.0 0
M  V30 11 S 3.8358 2.2967 0.0 0
M  V30 12 N 6.4404 2.2967 0.0 0
M  V30 13 O 6.4404 -2.2139 0.0 0
M  V30 14 C 7.7427 0.0355 0.0 0
M  V30 15 C 3.824 3.8121 0.0 0 CFG=2
M  V30 16 C 7.7309 1.5627 0.0 0
M  V30 17 C 9.0332 -0.7103 0.0 0
M  V30 18 C 5.1144 4.5698 0.0 0
M  V30 19 C 2.5098 4.5698 0.0 0
M  V30 20 C 9.0213 2.3204 0.0 0
M  V30 21 C 10.3236 0.0473 0.0 0
M  V30 22 O 5.1026 6.0852 0.0 0
M  V30 23 N 6.4049 3.8358 0.0 0
M  V30 24 C 10.3118 1.5864 0.0 0
M  V30 END ATOM
M  V30 BEGIN BOND
M  V30 1 1 1 2
M  V30 2 2 2 3
M  V30 3 1 2 4
M  V30 4 1 3 5
M  V30 5 2 4 6
M  V30 6 1 5 7
M  V30 7 2 5 8
M  V30 8 1 7 9
M  V30 9 1 7 10
M  V30 10 1 9 11
M  V30 11 2 9 12
M  V30 12 2 10 13
M  V30 13 1 10 14
M  V30 14 1 15 11 CFG=1
M  V30 15 1 12 16
M  V30 16 1 14 17
M  V30 17 1 15 18
M  V30 18 1 15 19
M  V30 19 1 16 20
M  V30 20 2 17 21
M  V30 21 2 18 22
M  V30 22 1 18 23
M  V30 23 2 20 24
M  V30 24 1 6 8
M  V30 25 2 14 16
M  V30 26 1 21 24
M  V30 END BOND
M  V30 BEGIN COLLECTION
M  V30 MDLV30/STERAC1 ATOMS=(1 15)
M  V30 END COLLECTION
M  V30 END CTAB
M  END
>  <Structure No>
597

>  <Catalog ID>
Z15506131

>  <MW (desalted)>
359.830

>  <ClogP>
3.116

>  <HBD>
1

>  <TPSA>
75.760

>  <RotBonds>
4

>  <Target>
Serine/threonine-protein kinase Chk1

>  <fromRegid>
CHEMBL461051

>  <Similarity>
0.85

$$$$
Compound 598
Actelion Java MolfileCreator 2.0

  0  0  0  0  0  0              0 V3000
M  V30 BEGIN CTAB
M  V30 COUNTS 34 37 0 0 0
M  V30 BEGIN ATOM
M  V30 1 Cl 0.0 0.0 0.0 0
M  V30 2 C -1.3145 -0.7342 0.0 0
M  V30 3 C -1.3263 -2.2264 0.0 0
M  V30 4 C -2.6291 0.0236 0.0 0
M  V30 5 C -2.6409 -2.9725 0.0 0
M  V30 6 C -3.9436 -0.7105 0.0 0
M  V30 7 N -2.6527 -4.4647 0.0 0
M  V30 8 C -3.9554 -2.2146 0.0 0
M  V30 9 C -1.3619 -5.2108 0.0 0
M  V30 10 C -3.9673 -5.2108 0.0 0
M  V30 11 S -0.071 -4.441 0.0 0
M  V30 12 N -1.3737 -6.703 0.0 0
M  V30 13 O -5.2818 -4.441 0.0 0
M  V30 14 C -3.9791 -6.703 0.0 0
M  V30 15 C 1.2198 -5.1871 0.0 0 CFG=2
M  V30 16 C -2.6883 -7.4372 0.0 0
M  V30 17 C -5.2937 -7.4372 0.0 0
M  V30 18 C 2.5106 -4.4173 0.0 0
M  V30 19 C 1.2079 -6.6793 0.0 0
M  V30 20 C -2.7001 -8.9294 0.0 0
M  V30 21 C -5.3055 -8.9294 0.0 0
M  V30 22 O 2.4988 -2.9014 0.0 0
M  V30 23 N 3.8015 -5.1634 0.0 0
M  V30 24 C -4.0147 -9.6755 0.0 0
M  V30 25 C 3.7896 -6.6556 0.0 0
M  V30 26 C 5.0924 -4.3936 0.0 0
M  V30 27 C 5.0805 -7.3899 0.0 0
M  V30 28 C 2.4751 -7.3899 0.0 0
M  V30 29 C 6.3832 -5.1397 0.0 0
M  V30 30 C 5.0687 -8.8821 0.0 0
M  V30 31 C 2.4633 -8.8821 0.0 0
M  V30 32 C 7.6741 -4.3699 0.0 0
M  V30 33 C 3.7541 -9.6281 0.0 0
M  V30 34 N 8.965 -3.612 0.0 0
M  V30 END ATOM
M  V30 BEGIN BOND
M  V30 1 1 1 2
M  V30 2 2 2 3
M  V30 3 1 2 4
M  V30 4 1 3 5
M  V30 5 2 4 6
M  V30 6 1 5 7
M  V30 7 2 5 8
M  V30 8 1 7 9
M  V30 9 1 7 10
M  V30 10 1 9 11
M  V30 11 2 9 12
M  V30 12 2 10 13
M  V30 13 1 10 14
M  V30 14 1 15 11 CFG=3
M  V30 15 1 12 16
M  V30 16 1 14 17
M  V30 17 1 15 18
M  V30 18 1 15 19
M  V30 19 1 16 20
M  V30 20 2 17 21
M  V30 21 2 18 22
M  V30 22 1 18 23
M  V30 23 2 20 24
M  V30 24 1 23 25
M  V30 25 1 23 26
M  V30 26 2 25 27
M  V30 27 1 25 28
M  V30 28 1 26 29
M  V30 29 1 27 30
M  V30 30 2 28 31
M  V30 31 1 29 32
M  V30 32 2 30 33
M  V30 33 3 32 34
M  V30 34 1 6 8
M  V30 35 2 14 16
M  V30 36 1 21 24
M  V30 37 1 31 33
M  V30 END BOND
M  V30 BEGIN COLLECTION
M  V30 MDLV30/STERAC1 ATOMS=(1 15)
M  V30 END COLLECTION
M  V30 END CTAB
M  END
>  <Structure No>
598

>  <Catalog ID>
Z15506175

>  <MW (desalted)>
488.989

>  <ClogP>
5.288

>  <HBD>
0

>  <TPSA>
76.770

>  <RotBonds>
7

>  <Target>
Serine/threonine-protein kinase Chk1

>  <fromRegid>
CHEMBL460853

>  <Similarity>
0.88

$$$$
Compound 599
Actelion Java MolfileCreator 2.0

  0  0  0  0  0  0              0 V3000
M  V30 BEGIN CTAB
M  V30 COUNTS 33 36 0 0 0
M  V30 BEGIN ATOM
M  V30 1 Cl 0.0 0.0 0.0 0
M  V30 2 C 1.2868 -0.7437 0.0 0
M  V30 3 C 2.5736 0.0118 0.0 0
M  V30 4 C 1.275 -2.2312 0.0 0
M  V30 5 C 3.8604 -0.7319 0.0 0
M  V30 6 C 2.5618 -2.975 0.0 0
M  V30 7 N 5.1472 0.0236 0.0 0
M  V30 8 C 3.8486 -2.2194 0.0 0
M  V30 9 C 5.1354 1.5347 0.0 0
M  V30 10 C 6.434 -0.7201 0.0 0
M  V30 11 S 3.825 2.2902 0.0 0
M  V30 12 N 6.4222 2.2902 0.0 0
M  V30 13 O 6.4222 -2.2076 0.0 0
M  V30 14 C 7.7208 0.0354 0.0 0
M  V30 15 C 3.8132 3.8013 0.0 0 CFG=2
M  V30 16 C 7.709 1.5583 0.0 0
M  V30 17 C 9.0076 -0.7083 0.0 0
M  V30 18 C 5.1 4.5569 0.0 0
M  V30 19 C 2.5027 4.5569 0.0 0
M  V30 20 C 8.9958 2.3138 0.0 0
M  V30 21 C 10.2944 0.0472 0.0 0
M  V30 22 O 6.3868 3.825 0.0 0
M  V30 23 N 5.0882 6.068 0.0 0
M  V30 24 C 10.2826 1.5819 0.0 0
M  V30 25 C 3.7777 6.8236 0.0 0
M  V30 26 C 2.4673 6.0916 0.0 0
M  V30 27 C 3.7659 8.3347 0.0 0
M  V30 28 C 1.1569 6.8472 0.0 0
M  V30 29 C 2.4555 9.102 0.0 0
M  V30 30 C 1.1451 8.3583 0.0 0
M  V30 31 C -0.1652 9.1257 0.0 0
M  V30 32 O -1.4756 8.3819 0.0 0
M  V30 33 N -0.177 10.6368 0.0 0
M  V30 END ATOM
M  V30 BEGIN BOND
M  V30 1 1 1 2
M  V30 2 2 2 3
M  V30 3 1 2 4
M  V30 4 1 3 5
M  V30 5 2 4 6
M  V30 6 1 5 7
M  V30 7 2 5 8
M  V30 8 1 7 9
M  V30 9 1 7 10
M  V30 10 1 9 11
M  V30 11 2 9 12
M  V30 12 2 10 13
M  V30 13 1 10 14
M  V30 14 1 15 11 CFG=1
M  V30 15 1 12 16
M  V30 16 1 14 17
M  V30 17 1 15 18
M  V30 18 1 15 19
M  V30 19 1 16 20
M  V30 20 2 17 21
M  V30 21 2 18 22
M  V30 22 1 18 23
M  V30 23 2 20 24
M  V30 24 1 23 25
M  V30 25 2 25 26
M  V30 26 1 25 27
M  V30 27 1 26 28
M  V30 28 2 27 29
M  V30 29 2 28 30
M  V30 30 1 30 31
M  V30 31 2 31 32
M  V30 32 1 31 33
M  V30 33 1 6 8
M  V30 34 2 14 16
M  V30 35 1 21 24
M  V30 36 1 29 30
M  V30 END BOND
M  V30 BEGIN COLLECTION
M  V30 MDLV30/STERAC1 ATOMS=(1 15)
M  V30 END COLLECTION
M  V30 END CTAB
M  END
>  <Structure No>
599

>  <Catalog ID>
Z15506202

>  <MW (desalted)>
478.951

>  <ClogP>
4.171

>  <HBD>
2

>  <TPSA>
104.860

>  <RotBonds>
6

>  <Target>
Serine/threonine-protein kinase Chk1

>  <fromRegid>
CHEMBL461264

>  <Similarity>
0.86

$$$$
Compound 600
Actelion Java MolfileCreator 2.0

  0  0  0  0  0  0              0 V3000
M  V30 BEGIN CTAB
M  V30 COUNTS 30 33 0 0 0
M  V30 BEGIN ATOM
M  V30 1 Cl 0.0 0.0 0.0 0
M  V30 2 C 1.2877 -0.7442 0.0 0
M  V30 3 C 2.5755 0.0118 0.0 0
M  V30 4 C 1.2759 -2.2328 0.0 0
M  V30 5 C 3.8632 -0.7324 0.0 0
M  V30 6 C 2.5636 -2.9771 0.0 0
M  V30 7 N 5.151 0.0236 0.0 0
M  V30 8 C 3.8514 -2.221 0.0 0
M  V30 9 C 5.1392 1.5358 0.0 0
M  V30 10 C 6.4387 -0.7206 0.0 0
M  V30 11 S 3.8278 2.2919 0.0 0
M  V30 12 N 6.4269 2.2919 0.0 0
M  V30 13 O 6.4269 -2.2092 0.0 0
M  V30 14 C 7.7265 0.0354 0.0 0
M  V30 15 C 3.816 3.8041 0.0 0 CFG=2
M  V30 16 C 7.7147 1.5594 0.0 0
M  V30 17 C 9.0142 -0.7088 0.0 0
M  V30 18 C 5.1037 4.5603 0.0 0
M  V30 19 C 2.5046 4.5603 0.0 0
M  V30 20 C 9.0024 2.3155 0.0 0
M  V30 21 C 10.302 0.0472 0.0 0
M  V30 22 O 6.3915 3.8278 0.0 0
M  V30 23 N 5.0919 6.0725 0.0 0
M  V30 24 C 10.2902 1.5831 0.0 0
M  V30 25 C 3.7805 6.8286 0.0 0
M  V30 26 C 2.4691 6.0961 0.0 0
M  V30 27 C 3.7687 8.3408 0.0 0
M  V30 28 C 1.1577 6.8522 0.0 0
M  V30 29 C 2.4573 9.1088 0.0 0
M  V30 30 C 1.1459 8.3645 0.0 0
M  V30 END ATOM
M  V30 BEGIN BOND
M  V30 1 1 1 2
M  V30 2 2 2 3
M  V30 3 1 2 4
M  V30 4 1 3 5
M  V30 5 2 4 6
M  V30 6 1 5 7
M  V30 7 2 5 8
M  V30 8 1 7 9
M  V30 9 1 7 10
M  V30 10 1 9 11
M  V30 11 2 9 12
M  V30 12 2 10 13
M  V30 13 1 10 14
M  V30 14 1 15 11 CFG=1
M  V30 15 1 12 16
M  V30 16 1 14 17
M  V30 17 1 15 18
M  V30 18 1 15 19
M  V30 19 1 16 20
M  V30 20 2 17 21
M  V30 21 2 18 22
M  V30 22 1 18 23
M  V30 23 2 20 24
M  V30 24 1 23 25
M  V30 25 1 25 26
M  V30 26 1 25 27
M  V30 27 1 26 28
M  V30 28 1 27 29
M  V30 29 1 28 30
M  V30 30 1 6 8
M  V30 31 2 14 16
M  V30 32 1 21 24
M  V30 33 1 29 30
M  V30 END BOND
M  V30 BEGIN COLLECTION
M  V30 MDLV30/STERAC1 ATOMS=(1 15)
M  V30 END COLLECTION
M  V30 END CTAB
M  END
>  <Structure No>
600

>  <Catalog ID>
Z15506212

>  <MW (desalted)>
441.974

>  <ClogP>
5.413

>  <HBD>
1

>  <TPSA>
61.770

>  <RotBonds>
5

>  <Target>
Serine/threonine-protein kinase Chk1

>  <fromRegid>
CHEMBL518175

>  <Similarity>
0.92

$$$$
Compound 601
Actelion Java MolfileCreator 2.0

  0  0  0  0  0  0              0 V3000
M  V30 BEGIN CTAB
M  V30 COUNTS 32 35 0 0 0
M  V30 BEGIN ATOM
M  V30 1 Cl 0.0 0.0 0.0 0
M  V30 2 C 1.2882 -0.7445 0.0 0
M  V30 3 C 2.5765 0.0118 0.0 0
M  V30 4 C 1.2764 -2.2337 0.0 0
M  V30 5 C 3.8648 -0.7327 0.0 0
M  V30 6 C 2.5647 -2.9783 0.0 0
M  V30 7 N 5.153 0.0236 0.0 0
M  V30 8 C 3.853 -2.2219 0.0 0
M  V30 9 C 5.1412 1.5364 0.0 0
M  V30 10 C 6.4413 -0.7209 0.0 0
M  V30 11 S 3.8293 2.2928 0.0 0
M  V30 12 N 6.4295 2.2928 0.0 0
M  V30 13 O 6.4295 -2.2101 0.0 0
M  V30 14 C 7.7296 0.0354 0.0 0
M  V30 15 C 3.8175 3.8057 0.0 0 CFG=2
M  V30 16 C 7.7178 1.5601 0.0 0
M  V30 17 C 9.0179 -0.7091 0.0 0
M  V30 18 C 2.5056 4.5621 0.0 0
M  V30 19 C 5.1058 4.5621 0.0 0
M  V30 20 C 9.0061 2.3165 0.0 0
M  V30 21 C 10.3061 0.0472 0.0 0
M  V30 22 O 1.1937 3.8293 0.0 0
M  V30 23 N 2.4938 6.0749 0.0 0
M  V30 24 C 10.2943 1.5837 0.0 0
M  V30 25 C 1.1819 6.8314 0.0 0
M  V30 26 C 0.6618 5.4367 0.0 0
M  V30 27 C -0.3072 7.1032 0.0 0
M  V30 28 C 2.1392 7.9896 0.0 0
M  V30 29 N 0.1418 4.0421 0.0 0
M  V30 30 C -0.8273 8.5215 0.0 0
M  V30 31 C 1.6192 9.4079 0.0 0
M  V30 32 C 0.13 9.6797 0.0 0
M  V30 END ATOM
M  V30 BEGIN BOND
M  V30 1 1 1 2
M  V30 2 2 2 3
M  V30 3 1 2 4
M  V30 4 1 3 5
M  V30 5 2 4 6
M  V30 6 1 5 7
M  V30 7 2 5 8
M  V30 8 1 7 9
M  V30 9 1 7 10
M  V30 10 1 9 11
M  V30 11 2 9 12
M  V30 12 2 10 13
M  V30 13 1 10 14
M  V30 14 1 15 11 CFG=3
M  V30 15 1 12 16
M  V30 16 1 14 17
M  V30 17 1 15 18
M  V30 18 1 15 19
M  V30 19 1 16 20
M  V30 20 2 17 21
M  V30 21 2 18 22
M  V30 22 1 18 23
M  V30 23 2 20 24
M  V30 24 1 23 25
M  V30 25 1 25 26
M  V30 26 1 25 27
M  V30 27 1 25 28
M  V30 28 3 26 29
M  V30 29 1 27 30
M  V30 30 1 28 31
M  V30 31 1 30 32
M  V30 32 1 6 8
M  V30 33 2 14 16
M  V30 34 1 21 24
M  V30 35 1 31 32
M  V30 END BOND
M  V30 BEGIN COLLECTION
M  V30 MDLV30/STERAC1 ATOMS=(1 15)
M  V30 END COLLECTION
M  V30 END CTAB
M  END
>  <Structure No>
601

>  <Catalog ID>
Z15506321

>  <MW (desalted)>
466.983

>  <ClogP>
4.970

>  <HBD>
1

>  <TPSA>
85.560

>  <RotBonds>
5

>  <Target>
Serine/threonine-protein kinase Chk1

>  <fromRegid>
CHEMBL460853

>  <Similarity>
0.87

$$$$
Compound 602
Actelion Java MolfileCreator 2.0

  0  0  0  0  0  0              0 V3000
M  V30 BEGIN CTAB
M  V30 COUNTS 28 31 0 0 0
M  V30 BEGIN ATOM
M  V30 1 Cl 0.0 0.0 0.0 0
M  V30 2 C -0.0117 1.5079 0.0 0
M  V30 3 C 1.2723 2.2736 0.0 0
M  V30 4 C -1.3194 2.2736 0.0 0
M  V30 5 C 1.2605 3.7815 0.0 0
M  V30 6 C -1.3312 3.7815 0.0 0
M  V30 7 N 2.5446 4.5355 0.0 0
M  V30 8 C -0.0471 4.5355 0.0 0
M  V30 9 C 2.5328 6.0434 0.0 0
M  V30 10 C 3.8286 3.7933 0.0 0
M  V30 11 S 1.2251 6.7973 0.0 0
M  V30 12 N 3.8169 6.7973 0.0 0
M  V30 13 O 3.8169 2.3089 0.0 0
M  V30 14 C 5.1127 4.5473 0.0 0
M  V30 15 C 1.2133 8.3053 0.0 0
M  V30 16 C 5.1009 6.0669 0.0 0
M  V30 17 C 6.3968 3.8051 0.0 0
M  V30 18 C -0.0942 9.0592 0.0 0
M  V30 19 C 6.385 6.8209 0.0 0
M  V30 20 C 7.6809 4.559 0.0 0
M  V30 21 O -1.4018 8.3288 0.0 0
M  V30 22 N -0.106 10.5671 0.0 0
M  V30 23 C 7.6691 6.0905 0.0 0
M  V30 24 C -1.4136 11.3211 0.0 0
M  V30 25 C 1.178 11.3211 0.0 0
M  V30 26 C -1.4254 12.829 0.0 0
M  V30 27 C 1.1662 12.829 0.0 0
M  V30 28 C -0.1413 13.5947 0.0 0
M  V30 END ATOM
M  V30 BEGIN BOND
M  V30 1 1 1 2
M  V30 2 2 2 3
M  V30 3 1 2 4
M  V30 4 1 3 5
M  V30 5 2 4 6
M  V30 6 1 5 7
M  V30 7 2 5 8
M  V30 8 1 7 9
M  V30 9 1 7 10
M  V30 10 1 9 11
M  V30 11 2 9 12
M  V30 12 2 10 13
M  V30 13 1 10 14
M  V30 14 1 11 15
M  V30 15 1 12 16
M  V30 16 1 14 17
M  V30 17 1 15 18
M  V30 18 1 16 19
M  V30 19 2 17 20
M  V30 20 2 18 21
M  V30 21 1 18 22
M  V30 22 2 19 23
M  V30 23 1 22 24
M  V30 24 1 22 25
M  V30 25 1 24 26
M  V30 26 1 25 27
M  V30 27 1 26 28
M  V30 28 1 6 8
M  V30 29 2 14 16
M  V30 30 1 20 23
M  V30 31 1 27 28
M  V30 END BOND
M  V30 END CTAB
M  END
>  <Structure No>
602

>  <Catalog ID>
Z15506836

>  <MW (desalted)>
413.920

>  <ClogP>
4.417

>  <HBD>
0

>  <TPSA>
52.980

>  <RotBonds>
4

>  <Target>
Serine/threonine-protein kinase Chk1

>  <fromRegid>
CHEMBL460853

>  <Similarity>
0.86

$$$$
Compound 603
Actelion Java MolfileCreator 2.0

  0  0  0  0  0  0              0 V3000
M  V30 BEGIN CTAB
M  V30 COUNTS 27 28 0 0 0
M  V30 BEGIN ATOM
M  V30 1 Cl 0.0 0.0 0.0 0
M  V30 2 F 3.141 3.8073 0.0 0
M  V30 3 C 4.4379 3.0696 0.0 0
M  V30 4 F 3.6645 1.7727 0.0 0
M  V30 5 F 5.1756 4.3903 0.0 0
M  V30 6 C 5.7348 2.3201 0.0 0
M  V30 7 C 7.0316 3.0815 0.0 0
M  V30 8 C 5.7229 0.8209 0.0 0
M  V30 9 C 8.3285 2.3319 0.0 0
M  V30 10 C 7.0197 0.0832 0.0 0
M  V30 11 C 8.3166 0.8328 0.0 0
M  V30 12 C 9.6135 0.0951 0.0 0
M  V30 13 C 10.9104 0.8566 0.0 0
M  V30 14 N 12.2072 0.1189 0.0 0
M  V30 15 C 13.5041 0.8804 0.0 0
M  V30 16 O 13.4922 2.4033 0.0 0
M  V30 17 C 14.801 0.1427 0.0 0
M  V30 18 C 14.7891 -1.3563 0.0 0
M  V30 19 C 16.0979 0.9042 0.0 0
M  V30 20 C 16.086 -2.094 0.0 0
M  V30 21 C 17.3948 0.1665 0.0 0
M  V30 22 C 17.3829 -1.3325 0.0 0
M  V30 23 C 15.848 -3.5812 0.0 0
M  V30 24 C 18.7749 -1.8679 0.0 0
M  V30 25 C 16.8593 -4.6758 0.0 0
M  V30 26 C 19.2032 -3.2957 0.0 0
M  V30 27 N 18.3585 -4.5569 0.0 0
M  V30 END ATOM
M  V30 BEGIN BOND
M  V30 1 1 2 3
M  V30 2 1 3 4
M  V30 3 1 3 5
M  V30 4 1 3 6
M  V30 5 2 6 7
M  V30 6 1 6 8
M  V30 7 1 7 9
M  V30 8 2 8 10
M  V30 9 2 9 11
M  V30 10 1 11 12
M  V30 11 1 12 13
M  V30 12 1 13 14
M  V30 13 1 14 15
M  V30 14 2 15 16
M  V30 15 1 15 17
M  V30 16 2 17 18
M  V30 17 1 17 19
M  V30 18 1 18 20
M  V30 19 2 19 21
M  V30 20 2 20 22
M  V30 21 1 20 23
M  V30 22 1 22 24
M  V30 23 1 23 25
M  V30 24 1 24 26
M  V30 25 1 25 27
M  V30 26 1 10 11
M  V30 27 1 21 22
M  V30 28 1 26 27
M  V30 END BOND
M  V30 END CTAB
M  END
>  <Structure No>
603

>  <Catalog ID>
Z1829778459

>  <MW (desalted)>
362.389

>  <ClogP>
3.703

>  <HBD>
2

>  <TPSA>
41.130

>  <RotBonds>
5

>  <Target>
Poly [ADP-ribose] polymerase-1

>  <fromRegid>
CHEMBL3629675

>  <Similarity>
0.9

$$$$
Compound 604
Actelion Java MolfileCreator 2.0

  0  0  0  0  0  0              0 V3000
M  V30 BEGIN CTAB
M  V30 COUNTS 26 28 0 0 0
M  V30 BEGIN ATOM
M  V30 1 O 0.0 0.0 0.0 0
M  V30 2 C -1.4398 -0.4484 0.0 0
M  V30 3 N -2.6672 0.4484 0.0 0
M  V30 4 N -1.9119 -1.8647 0.0 0
M  V30 5 C -3.8946 -0.4248 0.0 0
M  V30 6 C -2.679 1.9591 0.0 0
M  V30 7 C -3.4225 -1.8529 0.0 0 CFG=2
M  V30 8 O -5.3344 0.0472 0.0 0
M  V30 9 C -1.3926 2.7144 0.0 0
M  V30 10 C -4.3195 -3.0566 0.0 0
M  V30 11 O -0.1062 1.9709 0.0 0
M  V30 12 N -1.4044 4.225 0.0 0
M  V30 13 C -3.7176 -4.4139 0.0 0
M  V30 14 C -0.118 4.9804 0.0 0
M  V30 15 C -4.6145 -5.6177 0.0 0
M  V30 16 C -0.1298 6.491 0.0 0
M  V30 17 C 1.1683 4.2486 0.0 0
M  V30 18 C -4.0126 -6.9749 0.0 0
M  V30 19 C -6.1133 -5.4524 0.0 0
M  V30 20 C 1.1565 7.2463 0.0 0
M  V30 21 C -1.4398 7.2463 0.0 0
M  V30 22 C 2.4547 5.004 0.0 0
M  V30 23 C -4.9095 -8.1787 0.0 0
M  V30 24 C -7.0103 -6.6562 0.0 0
M  V30 25 C 2.4429 6.5146 0.0 0
M  V30 26 C -6.4084 -8.0135 0.0 0
M  V30 END ATOM
M  V30 BEGIN BOND
M  V30 1 2 1 2
M  V30 2 1 2 3
M  V30 3 1 2 4
M  V30 4 1 3 5
M  V30 5 1 3 6
M  V30 6 1 4 7
M  V30 7 2 5 8
M  V30 8 1 6 9
M  V30 9 1 7 10 CFG=1
M  V30 10 2 9 11
M  V30 11 1 9 12
M  V30 12 1 10 13
M  V30 13 1 12 14
M  V30 14 1 13 15
M  V30 15 2 14 16
M  V30 16 1 14 17
M  V30 17 2 15 18
M  V30 18 1 15 19
M  V30 19 1 16 20
M  V30 20 1 16 21
M  V30 21 2 17 22
M  V30 22 1 18 23
M  V30 23 2 19 24
M  V30 24 2 20 25
M  V30 25 2 23 26
M  V30 26 1 5 7
M  V30 27 1 22 25
M  V30 28 1 24 26
M  V30 END BOND
M  V30 BEGIN COLLECTION
M  V30 MDLV30/STERAC1 ATOMS=(1 7)
M  V30 END COLLECTION
M  V30 END CTAB
M  END
>  <Structure No>
604

>  <Catalog ID>
Z15559757

>  <MW (desalted)>
351.399

>  <ClogP>
2.442

>  <HBD>
2

>  <TPSA>
78.510

>  <RotBonds>
6

>  <Target>
CHK1

>  <fromRegid>


>  <Similarity>


$$$$
Compound 605
Actelion Java MolfileCreator 2.0

  0  0  0  0  0  0              0 V3000
M  V30 BEGIN CTAB
M  V30 COUNTS 26 28 0 0 0
M  V30 BEGIN ATOM
M  V30 1 O 0.0 0.0 0.0 0
M  V30 2 C 1.095 1.0126 0.0 0
M  V30 3 N 0.9302 2.5081 0.0 0
M  V30 4 N 2.5434 0.7182 0.0 0
M  V30 5 C -0.3768 3.2617 0.0 0
M  V30 6 C 2.2843 3.1321 0.0 0
M  V30 7 C 3.2734 2.0253 0.0 0
M  V30 8 C -1.6838 2.5316 0.0 0
M  V30 9 C -0.3885 4.7689 0.0 0
M  V30 10 C -2.9908 3.2852 0.0 0
M  V30 11 C -1.6956 5.5225 0.0 0
M  V30 12 N -4.2979 2.5552 0.0 0
M  V30 13 C -3.0026 4.7924 0.0 0
M  V30 14 C -5.6049 3.3088 0.0 0
M  V30 15 O -5.6167 4.816 0.0 0
M  V30 16 C -6.912 2.5787 0.0 0
M  V30 17 O -6.9237 1.095 0.0 0
M  V30 18 N -8.219 3.3323 0.0 0
M  V30 19 C -9.526 2.6023 0.0 0 CFG=2
M  V30 20 C -10.8331 3.3559 0.0 0
M  V30 21 C -9.5378 1.1186 0.0 0
M  V30 22 C -10.8449 4.8631 0.0 0
M  V30 23 C -12.1401 2.6258 0.0 0
M  V30 24 N -12.1519 5.6167 0.0 0
M  V30 25 C -13.4472 3.3794 0.0 0
M  V30 26 C -13.4589 4.8866 0.0 0
M  V30 END ATOM
M  V30 BEGIN BOND
M  V30 1 2 1 2
M  V30 2 1 2 3
M  V30 3 1 2 4
M  V30 4 1 3 5
M  V30 5 1 3 6
M  V30 6 1 4 7
M  V30 7 2 5 8
M  V30 8 1 5 9
M  V30 9 1 8 10
M  V30 10 2 9 11
M  V30 11 1 10 12
M  V30 12 2 10 13
M  V30 13 1 12 14
M  V30 14 2 14 15
M  V30 15 1 14 16
M  V30 16 2 16 17
M  V30 17 1 16 18
M  V30 18 1 19 18 CFG=1
M  V30 19 1 19 20
M  V30 20 1 19 21
M  V30 21 2 20 22
M  V30 22 1 20 23
M  V30 23 1 22 24
M  V30 24 2 23 25
M  V30 25 2 24 26
M  V30 26 1 6 7
M  V30 27 1 11 13
M  V30 28 1 25 26
M  V30 END BOND
M  V30 BEGIN COLLECTION
M  V30 MDLV30/STERAC1 ATOMS=(1 19)
M  V30 END COLLECTION
M  V30 END CTAB
M  END
>  <Structure No>
605

>  <Catalog ID>
Z437251380

>  <MW (desalted)>
353.375

>  <ClogP>
-1.028

>  <HBD>
3

>  <TPSA>
103.430

>  <RotBonds>
5

>  <Target>
CHK1

>  <fromRegid>


>  <Similarity>


$$$$
Compound 606
Actelion Java MolfileCreator 2.0

  0  0  0  0  0  0              0 V3000
M  V30 BEGIN CTAB
M  V30 COUNTS 23 25 0 0 0
M  V30 BEGIN ATOM
M  V30 1 S 0.0 0.0 0.0 0
M  V30 2 C -0.1656 1.5023 0.0 0
M  V30 3 C 1.455 -0.2957 0.0 0
M  V30 4 N 1.1947 2.1292 0.0 0
M  V30 5 N -1.4786 2.2594 0.0 0
M  V30 6 C 2.2002 1.0173 0.0 0
M  V30 7 C -2.7917 1.5259 0.0 0
M  V30 8 C 3.6789 1.1829 0.0 0
M  V30 9 O -2.8035 0.0354 0.0 0
M  V30 10 C -4.1047 2.283 0.0 0
M  V30 11 C 4.5542 -0.0236 0.0 0
M  V30 12 C 4.2822 2.5669 0.0 0
M  V30 13 C -5.4178 1.5496 0.0 0
M  V30 14 C 6.0329 0.1419 0.0 0
M  V30 15 C 5.7608 2.7325 0.0 0
M  V30 16 C -6.7308 2.3067 0.0 0
M  V30 17 C 6.6362 1.5259 0.0 0
M  V30 18 C 6.9083 -1.0646 0.0 0
M  V30 19 O -8.0439 1.5733 0.0 0
M  V30 20 C 8.1149 1.6915 0.0 0
M  V30 21 C 8.3869 -0.899 0.0 0
M  V30 22 C -9.357 2.3303 0.0 0
M  V30 23 C 8.9902 0.485 0.0 0
M  V30 END ATOM
M  V30 BEGIN BOND
M  V30 1 1 1 2
M  V30 2 1 1 3
M  V30 3 2 2 4
M  V30 4 1 2 5
M  V30 5 2 3 6
M  V30 6 1 5 7
M  V30 7 1 6 8
M  V30 8 2 7 9
M  V30 9 1 7 10
M  V30 10 2 8 11
M  V30 11 1 8 12
M  V30 12 1 10 13
M  V30 13 1 11 14
M  V30 14 2 12 15
M  V30 15 1 13 16
M  V30 16 1 14 17
M  V30 17 2 14 18
M  V30 18 1 16 19
M  V30 19 2 17 20
M  V30 20 1 18 21
M  V30 21 1 19 22
M  V30 22 1 20 23
M  V30 23 1 4 6
M  V30 24 1 15 17
M  V30 25 2 21 23
M  V30 END BOND
M  V30 END CTAB
M  END
>  <Structure No>
606

>  <Catalog ID>
Z441864874

>  <MW (desalted)>
326.413

>  <ClogP>
4.122

>  <HBD>
1

>  <TPSA>
51.220

>  <RotBonds>
6

>  <Target>
Poly [ADP-ribose] polymerase-1

>  <fromRegid>
CHEMBL452158

>  <Similarity>
0.91

$$$$
Compound 607
Actelion Java MolfileCreator 2.0

  0  0  0  0  0  0              0 V3000
M  V30 BEGIN CTAB
M  V30 COUNTS 25 28 0 0 0
M  V30 BEGIN ATOM
M  V30 1 F 0.0 0.0 0.0 0
M  V30 2 C 1.2976 -0.738 0.0 0
M  V30 3 C 2.5952 0.0238 0.0 0
M  V30 4 C 1.2856 -2.238 0.0 0
M  V30 5 C 3.8928 -0.7142 0.0 0
M  V30 6 C 2.5832 -2.9761 0.0 0
M  V30 7 C 3.8809 -2.2142 0.0 0
M  V30 8 C 5.1785 -2.9523 0.0 0 CFG=1
M  V30 9 O 5.1665 -4.4523 0.0 0
M  V30 10 C 6.4761 -2.1904 0.0 0
M  V30 11 C 6.4642 -5.2023 0.0 0
M  V30 12 N 7.7737 -2.9285 0.0 0
M  V30 13 C 7.7618 -4.4285 0.0 0
M  V30 14 C 9.0713 -2.1666 0.0 0
M  V30 15 C 10.3689 -2.9047 0.0 0
M  V30 16 N 11.6665 -2.1428 0.0 0
M  V30 17 N 10.357 -4.4047 0.0 0
M  V30 18 C 12.9641 -2.8809 0.0 0
M  V30 19 C 11.6546 -5.1546 0.0 0
M  V30 20 C 12.9522 -4.3808 0.0 0
M  V30 21 C 14.2617 -2.119 0.0 0
M  V30 22 O 11.6427 -6.6546 0.0 0
M  V30 23 C 14.2498 -5.1308 0.0 0
M  V30 24 C 15.5593 -2.8571 0.0 0
M  V30 25 C 15.5474 -4.357 0.0 0
M  V30 END ATOM
M  V30 BEGIN BOND
M  V30 1 1 1 2
M  V30 2 2 2 3
M  V30 3 1 2 4
M  V30 4 1 3 5
M  V30 5 2 4 6
M  V30 6 2 5 7
M  V30 7 1 8 7 CFG=3
M  V30 8 1 8 9
M  V30 9 1 8 10
M  V30 10 1 9 11
M  V30 11 1 10 12
M  V30 12 1 11 13
M  V30 13 1 12 14
M  V30 14 1 14 15
M  V30 15 2 15 16
M  V30 16 1 15 17
M  V30 17 1 16 18
M  V30 18 1 17 19
M  V30 19 2 18 20
M  V30 20 1 18 21
M  V30 21 2 19 22
M  V30 22 1 20 23
M  V30 23 2 21 24
M  V30 24 2 23 25
M  V30 25 1 6 7
M  V30 26 1 12 13
M  V30 27 1 19 20
M  V30 28 1 24 25
M  V30 END BOND
M  V30 BEGIN COLLECTION
M  V30 MDLV30/STERAC1 ATOMS=(1 8)
M  V30 END COLLECTION
M  V30 END CTAB
M  END
>  <Structure No>
607

>  <Catalog ID>
Z368851352

>  <MW (desalted)>
339.364

>  <ClogP>
1.753

>  <HBD>
1

>  <TPSA>
53.930

>  <RotBonds>
3

>  <Target>
parp1

>  <fromRegid>


>  <Similarity>


$$$$
Compound 608
Actelion Java MolfileCreator 2.0

  0  0  0  0  0  0              0 V3000
M  V30 BEGIN CTAB
M  V30 COUNTS 20 22 0 0 0
M  V30 BEGIN ATOM
M  V30 1 O 0.0 0.0 0.0 0
M  V30 2 C 0.4497 -1.4203 0.0 0
M  V30 3 N -0.4497 -2.6277 0.0 0
M  V30 4 C 1.8701 -1.8701 0.0 0
M  V30 5 C 0.4261 -3.835 0.0 0
M  V30 6 C -1.9648 -2.6158 0.0 0
M  V30 7 C 1.8583 -3.3616 0.0 0
M  V30 8 C 3.1603 -1.1008 0.0 0
M  V30 9 O -0.0473 -5.2554 0.0 0
M  V30 10 C -2.7224 -3.906 0.0 0
M  V30 11 C 3.1485 -4.1073 0.0 0
M  V30 12 C 4.4505 -1.8346 0.0 0
M  V30 13 C -4.2375 -3.8942 0.0 0
M  V30 14 C 4.4387 -3.3379 0.0 0
M  V30 15 N -5.0068 -5.1844 0.0 0
M  V30 16 C -4.2611 -6.4746 0.0 0
M  V30 17 C -6.5219 -5.1726 0.0 0
M  V30 18 C -5.0305 -7.7648 0.0 0
M  V30 19 C -7.2913 -6.4628 0.0 0
M  V30 20 O -6.5456 -7.7529 0.0 0
M  V30 END ATOM
M  V30 BEGIN BOND
M  V30 1 2 1 2
M  V30 2 1 2 3
M  V30 3 1 2 4
M  V30 4 1 3 5
M  V30 5 1 3 6
M  V30 6 2 4 7
M  V30 7 1 4 8
M  V30 8 2 5 9
M  V30 9 1 6 10
M  V30 10 1 7 11
M  V30 11 2 8 12
M  V30 12 1 10 13
M  V30 13 2 11 14
M  V30 14 1 13 15
M  V30 15 1 15 16
M  V30 16 1 15 17
M  V30 17 1 16 18
M  V30 18 1 17 19
M  V30 19 1 18 20
M  V30 20 1 5 7
M  V30 21 1 12 14
M  V30 22 1 19 20
M  V30 END BOND
M  V30 END CTAB
M  END
>  <Structure No>
608

>  <Catalog ID>
Z103718322

>  <MW (desalted)>
274.315

>  <ClogP>
1.841

>  <HBD>
0

>  <TPSA>
49.850

>  <RotBonds>
4

>  <Target>
Poly [ADP-ribose] polymerase-1

>  <fromRegid>
CHEMBL3605976

>  <Similarity>
0.91

$$$$
Compound 609
Actelion Java MolfileCreator 2.0

  0  0  0  0  0  0              0 V3000
M  V30 BEGIN CTAB
M  V30 COUNTS 24 26 0 0 0
M  V30 BEGIN ATOM
M  V30 1 S 0.0 0.0 0.0 0
M  V30 2 C 1.2903 -0.7339 0.0 0
M  V30 3 C -1.314 -0.7339 0.0 0
M  V30 4 N 2.5807 0.0236 0.0 0
M  V30 5 N 1.2785 -2.2256 0.0 0
M  V30 6 C -2.6281 0.0236 0.0 0
M  V30 7 C 3.8711 -0.7103 0.0 0
M  V30 8 C 2.5689 -2.9714 0.0 0
M  V30 9 C -0.0355 -2.9714 0.0 0
M  V30 10 O -3.9422 -0.7103 0.0 0
M  V30 11 N -2.6399 1.539 0.0 0
M  V30 12 C 3.8593 -2.2019 0.0 0
M  V30 13 C 5.1615 0.0473 0.0 0
M  V30 14 O 2.5571 -4.4631 0.0 0
M  V30 15 C -1.3495 -2.2138 0.0 0
M  V30 16 C -0.0473 -4.4631 0.0 0
M  V30 17 C 5.1497 -2.9477 0.0 0
M  V30 18 C 6.4519 -0.6866 0.0 0
M  V30 19 C -2.6636 -2.9596 0.0 0
M  V30 20 C -1.3614 -5.2089 0.0 0
M  V30 21 C 6.4401 -2.1901 0.0 0
M  V30 22 C -2.6755 -4.4512 0.0 0
M  V30 23 O -3.9895 -5.1971 0.0 0
M  V30 24 C -4.0014 -6.6887 0.0 0
M  V30 END ATOM
M  V30 BEGIN BOND
M  V30 1 1 1 2
M  V30 2 1 1 3
M  V30 3 2 2 4
M  V30 4 1 2 5
M  V30 5 1 3 6
M  V30 6 1 4 7
M  V30 7 1 5 8
M  V30 8 1 5 9
M  V30 9 2 6 10
M  V30 10 1 6 11
M  V30 11 2 7 12
M  V30 12 1 7 13
M  V30 13 2 8 14
M  V30 14 2 9 15
M  V30 15 1 9 16
M  V30 16 1 12 17
M  V30 17 2 13 18
M  V30 18 1 15 19
M  V30 19 2 16 20
M  V30 20 2 17 21
M  V30 21 2 19 22
M  V30 22 1 22 23
M  V30 23 1 23 24
M  V30 24 1 8 12
M  V30 25 1 18 21
M  V30 26 1 20 22
M  V30 END BOND
M  V30 END CTAB
M  END
>  <Structure No>
609

>  <Catalog ID>
Z17076740

>  <MW (desalted)>
341.384

>  <ClogP>
2.176

>  <HBD>
1

>  <TPSA>
84.990

>  <RotBonds>
5

>  <Target>
CHK2

>  <fromRegid>


>  <Similarity>


$$$$
Compound 610
Actelion Java MolfileCreator 2.0

  0  0  0  0  0  0              0 V3000
M  V30 BEGIN CTAB
M  V30 COUNTS 22 24 0 0 0
M  V30 BEGIN ATOM
M  V30 1 S 0.0 0.0 0.0 0
M  V30 2 C 1.2897 0.7691 0.0 0
M  V30 3 C -1.3134 0.7691 0.0 0
M  V30 4 C 2.5794 0.0236 0.0 0
M  V30 5 C -2.6268 0.0236 0.0 0
M  V30 6 N 3.8692 0.7927 0.0 0
M  V30 7 N 2.5676 -1.4672 0.0 0
M  V30 8 C -2.6386 -1.4672 0.0 0
M  V30 9 C -3.9402 0.7927 0.0 0
M  V30 10 C 5.1589 0.0473 0.0 0
M  V30 11 C 3.8573 -2.2126 0.0 0
M  V30 12 C -3.952 -2.2126 0.0 0
M  V30 13 C -5.2536 0.0473 0.0 0
M  V30 14 C 5.1471 -1.4435 0.0 0
M  V30 15 C 6.4486 0.8164 0.0 0
M  V30 16 O 3.8455 -3.7035 0.0 0
M  V30 17 O -3.9638 -3.7035 0.0 0
M  V30 18 C -5.2654 -1.4435 0.0 0
M  V30 19 C 6.4368 -2.189 0.0 0
M  V30 20 C 7.7384 0.0709 0.0 0
M  V30 21 C -5.2772 -4.4489 0.0 0
M  V30 22 C 7.7265 -1.4198 0.0 0
M  V30 END ATOM
M  V30 BEGIN BOND
M  V30 1 1 1 2
M  V30 2 1 1 3
M  V30 3 1 2 4
M  V30 4 1 3 5
M  V30 5 2 4 6
M  V30 6 1 4 7
M  V30 7 2 5 8
M  V30 8 1 5 9
M  V30 9 1 6 10
M  V30 10 1 7 11
M  V30 11 1 8 12
M  V30 12 2 9 13
M  V30 13 2 10 14
M  V30 14 1 10 15
M  V30 15 2 11 16
M  V30 16 1 12 17
M  V30 17 2 12 18
M  V30 18 1 14 19
M  V30 19 2 15 20
M  V30 20 1 17 21
M  V30 21 2 19 22
M  V30 22 1 11 14
M  V30 23 1 13 18
M  V30 24 1 20 22
M  V30 END BOND
M  V30 END CTAB
M  END
>  <Structure No>
610

>  <Catalog ID>
Z955207634

>  <MW (desalted)>
312.386

>  <ClogP>
2.740

>  <HBD>
1

>  <TPSA>
50.690

>  <RotBonds>
5

>  <Target>
parp3

>  <fromRegid>


>  <Similarity>


$$$$
Compound 611
Actelion Java MolfileCreator 2.0

  0  0  0  0  0  0              0 V3000
M  V30 BEGIN CTAB
M  V30 COUNTS 26 29 0 0 0
M  V30 BEGIN ATOM
M  V30 1 O 0.0 0.0 0.0 0
M  V30 2 C 1.2867 -0.7437 0.0 0
M  V30 3 N 1.2749 -2.2311 0.0 0
M  V30 4 C 2.5734 0.0236 0.0 0 CFG=1
M  V30 5 C -0.0354 -2.9748 0.0 0
M  V30 6 O 3.8601 -0.72 0.0 0
M  V30 7 C 2.5616 1.5346 0.0 0
M  V30 8 N -0.2006 -4.4504 0.0 0
M  V30 9 C -1.4165 -2.3491 0.0 0
M  V30 10 C 5.1469 0.0472 0.0 0
M  V30 11 O 3.8483 2.3019 0.0 0
M  V30 12 N -1.6762 -4.7455 0.0 0
M  V30 13 C -2.4318 -3.447 0.0 0
M  V30 14 C 5.1351 1.5582 0.0 0
M  V30 15 C 6.4336 -0.6964 0.0 0
M  V30 16 C -3.931 -3.2817 0.0 0
M  V30 17 C 6.4218 2.3255 0.0 0
M  V30 18 C 7.7203 0.0708 0.0 0
M  V30 19 C -4.8282 -4.4858 0.0 0
M  V30 20 C -4.5566 -1.9005 0.0 0
M  V30 21 C 7.7085 1.5818 0.0 0
M  V30 22 O -4.2261 -5.8434 0.0 0
M  V30 23 C -6.3274 -4.3205 0.0 0
M  V30 24 C -6.0559 -1.7353 0.0 0
M  V30 25 C -5.1233 -7.0475 0.0 0
M  V30 26 C -6.953 -2.9394 0.0 0
M  V30 END ATOM
M  V30 BEGIN BOND
M  V30 1 2 1 2
M  V30 2 1 2 3
M  V30 3 1 4 2 CFG=3
M  V30 4 1 3 5
M  V30 5 1 4 6
M  V30 6 1 4 7
M  V30 7 1 5 8
M  V30 8 2 5 9
M  V30 9 1 6 10
M  V30 10 1 7 11
M  V30 11 1 8 12
M  V30 12 1 9 13
M  V30 13 2 10 14
M  V30 14 1 10 15
M  V30 15 1 13 16
M  V30 16 1 14 17
M  V30 17 2 15 18
M  V30 18 2 16 19
M  V30 19 1 16 20
M  V30 20 2 17 21
M  V30 21 1 19 22
M  V30 22 1 19 23
M  V30 23 2 20 24
M  V30 24 1 22 25
M  V30 25 2 23 26
M  V30 26 1 11 14
M  V30 27 2 12 13
M  V30 28 1 18 21
M  V30 29 1 24 26
M  V30 END BOND
M  V30 BEGIN COLLECTION
M  V30 MDLV30/STERAC1 ATOMS=(1 4)
M  V30 END COLLECTION
M  V30 END CTAB
M  END
>  <Structure No>
611

>  <Catalog ID>
Z927973306

>  <MW (desalted)>
351.356

>  <ClogP>
2.965

>  <HBD>
2

>  <TPSA>
85.470

>  <RotBonds>
4

>  <Target>
CHK1

>  <fromRegid>


>  <Similarity>


$$$$
Compound 612
Actelion Java MolfileCreator 2.0

  0  0  0  0  0  0              0 V3000
M  V30 BEGIN CTAB
M  V30 COUNTS 29 31 0 0 0
M  V30 BEGIN ATOM
M  V30 1 Cl 0.0 0.0 0.0 0
M  V30 2 C 1.2824 0.7529 0.0 0
M  V30 3 C 1.2706 2.2589 0.0 0
M  V30 4 C 2.5648 0.0235 0.0 0
M  V30 5 O -0.0352 3.0237 0.0 0
M  V30 6 C 2.5531 3.0237 0.0 0
M  V30 7 C 3.8473 0.7765 0.0 0
M  V30 8 C -1.3412 2.2825 0.0 0
M  V30 9 C 3.8355 2.2825 0.0 0
M  V30 10 Cl 5.1297 0.047 0.0 0
M  V30 11 C -2.6472 3.0472 0.0 0 CFG=1
M  V30 12 O -2.659 4.5532 0.0 0
M  V30 13 C -3.9532 2.306 0.0 0
M  V30 14 N -5.2592 3.0708 0.0 0
M  V30 15 C -6.6357 2.4707 0.0 0
M  V30 16 C -5.4239 4.565 0.0 0
M  V30 17 O -6.9534 1.0236 0.0 0
M  V30 18 N -7.6476 3.5884 0.0 0
M  V30 19 C -6.8946 4.8827 0.0 0
M  V30 20 C -9.1418 3.4473 0.0 0
M  V30 21 C -7.5181 6.2592 0.0 0
M  V30 22 C -10.036 4.6709 0.0 0
M  V30 23 C -9.7654 2.0942 0.0 0
M  V30 24 C -11.5302 4.5297 0.0 0
M  V30 25 C -11.2596 1.953 0.0 0
M  V30 26 N -12.4244 5.7533 0.0 0 CHG=1
M  V30 27 C -12.1538 3.1766 0.0 0
M  V30 28 O -13.9186 5.6121 0.0 0
M  V30 29 O -11.8243 7.1299 0.0 0 CHG=-1
M  V30 END ATOM
M  V30 BEGIN BOND
M  V30 1 1 1 2
M  V30 2 2 2 3
M  V30 3 1 2 4
M  V30 4 1 3 5
M  V30 5 1 3 6
M  V30 6 2 4 7
M  V30 7 1 5 8
M  V30 8 2 6 9
M  V30 9 1 7 10
M  V30 10 1 8 11
M  V30 11 1 11 12 CFG=3
M  V30 12 1 11 13
M  V30 13 1 13 14
M  V30 14 1 14 15
M  V30 15 1 14 16
M  V30 16 2 15 17
M  V30 17 1 15 18
M  V30 18 2 16 19
M  V30 19 1 18 20
M  V30 20 1 19 21
M  V30 21 2 20 22
M  V30 22 1 20 23
M  V30 23 1 22 24
M  V30 24 2 23 25
M  V30 25 1 24 26
M  V30 26 2 24 27
M  V30 27 2 26 28
M  V30 28 1 26 29
M  V30 29 1 7 9
M  V30 30 1 18 19
M  V30 31 1 25 27
M  V30 END BOND
M  V30 BEGIN COLLECTION
M  V30 MDLV30/STERAC1 ATOMS=(1 11)
M  V30 END COLLECTION
M  V30 END CTAB
M  END
>  <Structure No>
612

>  <Catalog ID>
Z927936530

>  <MW (desalted)>
438.261

>  <ClogP>
4.549

>  <HBD>
1

>  <TPSA>
96.150

>  <RotBonds>
7

>  <Target>
parp14

>  <fromRegid>


>  <Similarity>


$$$$
Compound 613
Actelion Java MolfileCreator 2.0

  0  0  0  0  0  0              0 V3000
M  V30 BEGIN CTAB
M  V30 COUNTS 25 27 0 0 0
M  V30 BEGIN ATOM
M  V30 1 O 0.0 0.0 0.0 0
M  V30 2 C -0.0117 1.5037 0.0 0
M  V30 3 N -1.3158 2.2556 0.0 0
M  V30 4 C 1.2688 2.2556 0.0 0
M  V30 5 C -1.3275 3.7594 0.0 0
M  V30 6 C 1.257 3.7594 0.0 0
M  V30 7 C 2.5493 1.5272 0.0 0
M  V30 8 N -0.0469 4.5231 0.0 0
M  V30 9 C -2.6316 4.5231 0.0 0
M  V30 10 C 2.5376 4.5231 0.0 0
M  V30 11 C 3.8299 2.2791 0.0 0
M  V30 12 C -3.9356 3.7829 0.0 0
M  V30 13 C 3.8182 3.7829 0.0 0
M  V30 14 C -5.2397 4.5466 0.0 0
M  V30 15 O -5.2515 6.0504 0.0 0
M  V30 16 N -6.5438 3.8064 0.0 0
M  V30 17 C -7.8479 4.5701 0.0 0
M  V30 18 C -9.1519 3.8299 0.0 0
M  V30 19 C -10.456 4.5936 0.0 0
M  V30 20 C -11.7601 3.8534 0.0 0
M  V30 21 C -10.4677 6.0973 0.0 0
M  V30 22 C -13.0641 4.6171 0.0 0
M  V30 23 C -11.7718 6.8492 0.0 0
M  V30 24 O -14.3682 3.8769 0.0 0
M  V30 25 C -13.0759 6.1208 0.0 0
M  V30 END ATOM
M  V30 BEGIN BOND
M  V30 1 2 1 2
M  V30 2 1 2 3
M  V30 3 1 2 4
M  V30 4 1 3 5
M  V30 5 2 4 6
M  V30 6 1 4 7
M  V30 7 2 5 8
M  V30 8 1 5 9
M  V30 9 1 6 10
M  V30 10 2 7 11
M  V30 11 1 9 12
M  V30 12 2 10 13
M  V30 13 1 12 14
M  V30 14 2 14 15
M  V30 15 1 14 16
M  V30 16 1 16 17
M  V30 17 1 17 18
M  V30 18 1 18 19
M  V30 19 2 19 20
M  V30 20 1 19 21
M  V30 21 1 20 22
M  V30 22 2 21 23
M  V30 23 1 22 24
M  V30 24 2 22 25
M  V30 25 1 6 8
M  V30 26 1 11 13
M  V30 27 1 23 25
M  V30 END BOND
M  V30 END CTAB
M  END
>  <Structure No>
613

>  <Catalog ID>
Z928029482

>  <MW (desalted)>
337.372

>  <ClogP>
0.612

>  <HBD>
3

>  <TPSA>
90.790

>  <RotBonds>
6

>  <Target>
parp3

>  <fromRegid>


>  <Similarity>


$$$$
Compound 614
Actelion Java MolfileCreator 2.0

  0  0  0  0  0  0              0 V3000
M  V30 BEGIN CTAB
M  V30 COUNTS 30 32 0 0 0
M  V30 BEGIN ATOM
M  V30 1 F 0.0 0.0 0.0 0
M  V30 2 C -0.0117 1.5054 0.0 0
M  V30 3 F -1.5171 1.5171 0.0 0
M  V30 4 F 1.4701 1.5171 0.0 0
M  V30 5 C -0.0235 3.0108 0.0 0
M  V30 6 C -1.3289 3.7752 0.0 0
M  V30 7 C 1.2584 3.7752 0.0 0
M  V30 8 C -1.3407 5.2807 0.0 0
M  V30 9 C 1.2466 5.2807 0.0 0
M  V30 10 N -2.6462 6.0334 0.0 0
M  V30 11 C -0.0588 6.0334 0.0 0
M  V30 12 C -3.9517 5.2924 0.0 0
M  V30 13 N -0.0705 7.5388 0.0 0
M  V30 14 O -3.9634 3.8105 0.0 0
M  V30 15 C -5.2571 6.0451 0.0 0
M  V30 16 C -1.376 8.2915 0.0 0
M  V30 17 C 1.2113 8.2915 0.0 0
M  V30 18 O -5.2689 7.5505 0.0 0
M  V30 19 C -1.3878 9.7969 0.0 0
M  V30 20 C 1.1996 9.7969 0.0 0
M  V30 21 C -6.5744 8.3032 0.0 0
M  V30 22 O -0.1058 10.5496 0.0 0
M  V30 23 C -7.8798 7.5741 0.0 0
M  V30 24 C -6.5861 9.8087 0.0 0
M  V30 25 C -7.8916 6.0922 0.0 0
M  V30 26 C -9.1853 8.3268 0.0 0
M  V30 27 C -7.8916 10.5614 0.0 0
M  V30 28 O -6.6097 5.3512 0.0 0
M  V30 29 N -9.1971 5.3512 0.0 0
M  V30 30 C -9.1971 9.8322 0.0 0
M  V30 END ATOM
M  V30 BEGIN BOND
M  V30 1 1 1 2
M  V30 2 1 2 3
M  V30 3 1 2 4
M  V30 4 1 2 5
M  V30 5 2 5 6
M  V30 6 1 5 7
M  V30 7 1 6 8
M  V30 8 2 7 9
M  V30 9 1 8 10
M  V30 10 2 8 11
M  V30 11 1 10 12
M  V30 12 1 11 13
M  V30 13 2 12 14
M  V30 14 1 12 15
M  V30 15 1 13 16
M  V30 16 1 13 17
M  V30 17 1 15 18
M  V30 18 1 16 19
M  V30 19 1 17 20
M  V30 20 1 18 21
M  V30 21 1 19 22
M  V30 22 2 21 23
M  V30 23 1 21 24
M  V30 24 1 23 25
M  V30 25 1 23 26
M  V30 26 2 24 27
M  V30 27 2 25 28
M  V30 28 1 25 29
M  V30 29 2 26 30
M  V30 30 1 9 11
M  V30 31 1 20 22
M  V30 32 1 27 30
M  V30 END BOND
M  V30 END CTAB
M  END
>  <Structure No>
614

>  <Catalog ID>
Z15685892

>  <MW (desalted)>
423.386

>  <ClogP>
2.262

>  <HBD>
2

>  <TPSA>
93.890

>  <RotBonds>
7

>  <Target>
Poly [ADP-ribose] polymerase-1

>  <fromRegid>
CHEMBL3105431

>  <Similarity>
0.89

$$$$
Compound 615
Actelion Java MolfileCreator 2.0

  0  0  0  0  0  0              0 V3000
M  V30 BEGIN CTAB
M  V30 COUNTS 23 24 0 0 0
M  V30 BEGIN ATOM
M  V30 1 F 0.0 0.0 0.0 0
M  V30 2 C 1.2965 -0.7374 0.0 0
M  V30 3 C 1.2846 -2.2361 0.0 0
M  V30 4 C 2.593 0.0237 0.0 0
M  V30 5 C 2.5811 -2.9736 0.0 0
M  V30 6 C 3.8895 -0.7136 0.0 0
M  V30 7 C 3.8776 -2.2124 0.0 0
M  V30 8 C 5.1741 -2.9498 0.0 0 CFG=1
M  V30 9 N 6.4707 -2.1886 0.0 0
M  V30 10 C 5.1622 -4.4486 0.0 0
M  V30 11 C 7.7672 -2.926 0.0 0
M  V30 12 O 7.7553 -4.4248 0.0 0
M  V30 13 C 9.0637 -2.1648 0.0 0
M  V30 14 O 10.3602 -2.9023 0.0 0
M  V30 15 C 11.6567 -2.141 0.0 0
M  V30 16 C 12.9532 -2.8785 0.0 0
M  V30 17 C 11.6448 -0.6185 0.0 0
M  V30 18 C 12.9414 -4.3772 0.0 0
M  V30 19 C 14.2498 -2.1172 0.0 0
M  V30 20 C 12.9414 0.1427 0.0 0
M  V30 21 O 11.621 -5.1147 0.0 0
M  V30 22 N 14.2379 -5.1147 0.0 0
M  V30 23 C 14.2379 -0.5947 0.0 0
M  V30 END ATOM
M  V30 BEGIN BOND
M  V30 1 1 1 2
M  V30 2 2 2 3
M  V30 3 1 2 4
M  V30 4 1 3 5
M  V30 5 2 4 6
M  V30 6 2 5 7
M  V30 7 1 7 8
M  V30 8 1 8 9 CFG=1
M  V30 9 1 8 10
M  V30 10 1 9 11
M  V30 11 2 11 12
M  V30 12 1 11 13
M  V30 13 1 13 14
M  V30 14 1 14 15
M  V30 15 2 15 16
M  V30 16 1 15 17
M  V30 17 1 16 18
M  V30 18 1 16 19
M  V30 19 2 17 20
M  V30 20 2 18 21
M  V30 21 1 18 22
M  V30 22 2 19 23
M  V30 23 1 6 7
M  V30 24 1 20 23
M  V30 END BOND
M  V30 BEGIN COLLECTION
M  V30 MDLV30/STERAC1 ATOMS=(1 8)
M  V30 END COLLECTION
M  V30 END CTAB
M  END
>  <Structure No>
615

>  <Catalog ID>
Z15685798

>  <MW (desalted)>
316.327

>  <ClogP>
1.860

>  <HBD>
2

>  <TPSA>
81.420

>  <RotBonds>
6

>  <Target>
Poly [ADP-ribose] polymerase-1

>  <fromRegid>
CHEMBL3105430

>  <Similarity>
0.91

$$$$
Compound 616
Actelion Java MolfileCreator 2.0

  0  0  0  0  0  0              0 V3000
M  V30 BEGIN CTAB
M  V30 COUNTS 30 33 0 0 0
M  V30 BEGIN ATOM
M  V30 1 S 0.0 0.0 0.0 0
M  V30 2 C -0.8974 -1.2045 0.0 0
M  V30 3 C 1.417 -0.4487 0.0 0
M  V30 4 N -0.0236 -2.409 0.0 0
M  V30 5 C -2.409 -1.1927 0.0 0
M  V30 6 C 1.4052 -1.9366 0.0 0
M  V30 7 C 2.7042 0.307 0.0 0
M  V30 8 C -3.1648 -2.4799 0.0 0
M  V30 9 C -3.1648 0.118 0.0 0
M  V30 10 C 2.6924 -2.6688 0.0 0
M  V30 11 C 3.9914 -0.4251 0.0 0
M  V30 12 C -4.6764 -2.4681 0.0 0
M  V30 13 C -4.6764 0.1299 0.0 0
M  V30 14 C 3.9796 -1.913 0.0 0
M  V30 15 C 5.2786 0.3306 0.0 0
M  V30 16 C -5.4322 -1.1572 0.0 0
M  V30 17 N -6.9437 -1.1454 0.0 0
M  V30 18 C -7.6995 -2.4326 0.0 0
M  V30 19 O -6.9555 -3.7198 0.0 0
M  V30 20 C -9.2111 -2.4208 0.0 0
M  V30 21 O -9.9669 -3.708 0.0 0
M  V30 22 C -11.4784 -3.6962 0.0 0
M  V30 23 C -12.2342 -2.3854 0.0 0
M  V30 24 C -12.2342 -4.9834 0.0 0
M  V30 25 C -11.5021 -1.0746 0.0 0
M  V30 26 C -13.7458 -2.3736 0.0 0
M  V30 27 C -13.7458 -4.9716 0.0 0
M  V30 28 O -10.0141 -1.0628 0.0 0
M  V30 29 N -12.2578 0.2361 0.0 0
M  V30 30 C -14.5134 -3.6608 0.0 0
M  V30 END ATOM
M  V30 BEGIN BOND
M  V30 1 1 1 2
M  V30 2 1 1 3
M  V30 3 2 2 4
M  V30 4 1 2 5
M  V30 5 2 3 6
M  V30 6 1 3 7
M  V30 7 2 5 8
M  V30 8 1 5 9
M  V30 9 1 6 10
M  V30 10 2 7 11
M  V30 11 1 8 12
M  V30 12 2 9 13
M  V30 13 2 10 14
M  V30 14 1 11 15
M  V30 15 2 12 16
M  V30 16 1 16 17
M  V30 17 1 17 18
M  V30 18 2 18 19
M  V30 19 1 18 20
M  V30 20 1 20 21
M  V30 21 1 21 22
M  V30 22 2 22 23
M  V30 23 1 22 24
M  V30 24 1 23 25
M  V30 25 1 23 26
M  V30 26 2 24 27
M  V30 27 2 25 28
M  V30 28 1 25 29
M  V30 29 2 26 30
M  V30 30 1 4 6
M  V30 31 1 11 14
M  V30 32 1 13 16
M  V30 33 1 27 30
M  V30 END BOND
M  V30 END CTAB
M  END
>  <Structure No>
616

>  <Catalog ID>
Z15685856

>  <MW (desalted)>
417.480

>  <ClogP>
4.096

>  <HBD>
2

>  <TPSA>
94.310

>  <RotBonds>
6

>  <Target>
Tankyrase1

>  <fromRegid>


>  <Similarity>


$$$$
Compound 617
Actelion Java MolfileCreator 2.0

  0  0  0  0  0  0              0 V3000
M  V30 BEGIN CTAB
M  V30 COUNTS 26 28 0 0 0
M  V30 BEGIN ATOM
M  V30 1 F 0.0 0.0 0.0 0
M  V30 2 C -0.0118 -1.4958 0.0 0
M  V30 3 C -1.3296 -2.2319 0.0 0
M  V30 4 C 1.2821 -2.2319 0.0 0
M  V30 5 C -1.3415 -3.7277 0.0 0
M  V30 6 C 1.2702 -3.7277 0.0 0
M  V30 7 C -0.0474 -4.4638 0.0 0
M  V30 8 N -0.0593 -5.9597 0.0 0
M  V30 9 C -1.3771 -6.7076 0.0 0
M  V30 10 C 1.2346 -6.7076 0.0 0
M  V30 11 C -1.389 -8.2035 0.0 0
M  V30 12 C 1.2228 -8.2035 0.0 0
M  V30 13 N -0.0949 -8.9514 0.0 0
M  V30 14 C -0.1068 -10.4472 0.0 0
M  V30 15 O -1.4246 -11.1833 0.0 0
M  V30 16 C 1.1871 -11.1833 0.0 0
M  V30 17 O 1.1753 -12.6792 0.0 0
M  V30 18 C 2.4693 -13.4271 0.0 0
M  V30 19 C 3.7634 -12.6554 0.0 0
M  V30 20 C 2.4574 -14.923 0.0 0
M  V30 21 C 3.7515 -11.1358 0.0 0
M  V30 22 C 5.0574 -13.4034 0.0 0
M  V30 23 C 3.7515 -15.659 0.0 0
M  V30 24 O 2.4337 -10.376 0.0 0
M  V30 25 N 5.0455 -10.376 0.0 0
M  V30 26 C 5.0455 -14.8992 0.0 0
M  V30 END ATOM
M  V30 BEGIN BOND
M  V30 1 1 1 2
M  V30 2 2 2 3
M  V30 3 1 2 4
M  V30 4 1 3 5
M  V30 5 2 4 6
M  V30 6 2 5 7
M  V30 7 1 7 8
M  V30 8 1 8 9
M  V30 9 1 8 10
M  V30 10 1 9 11
M  V30 11 1 10 12
M  V30 12 1 11 13
M  V30 13 1 13 14
M  V30 14 2 14 15
M  V30 15 1 14 16
M  V30 16 1 16 17
M  V30 17 1 17 18
M  V30 18 2 18 19
M  V30 19 1 18 20
M  V30 20 1 19 21
M  V30 21 1 19 22
M  V30 22 2 20 23
M  V30 23 2 21 24
M  V30 24 1 21 25
M  V30 25 2 22 26
M  V30 26 1 6 7
M  V30 27 1 12 13
M  V30 28 1 23 26
M  V30 END BOND
M  V30 END CTAB
M  END
>  <Structure No>
617

>  <Catalog ID>
Z15685807

>  <MW (desalted)>
357.379

>  <ClogP>
2.383

>  <HBD>
1

>  <TPSA>
75.870

>  <RotBonds>
5

>  <Target>
Poly [ADP-ribose] polymerase-1

>  <fromRegid>
CHEMBL3105432

>  <Similarity>
0.87

$$$$
Compound 618
Actelion Java MolfileCreator 2.0

  0  0  0  0  0  0              0 V3000
M  V30 BEGIN CTAB
M  V30 COUNTS 23 25 0 0 0
M  V30 BEGIN ATOM
M  V30 1 O 0.0 0.0 0.0 0
M  V30 2 C -0.0118 -1.489 0.0 0
M  V30 3 N 1.2762 -2.2217 0.0 0
M  V30 4 C -1.3235 -2.2217 0.0 0
M  V30 5 C -2.6353 -1.4653 0.0 0
M  V30 6 C -1.3353 -3.7107 0.0 0
M  V30 7 O -2.6471 0.0472 0.0 0
M  V30 8 C -3.947 -2.198 0.0 0
M  V30 9 C -2.6471 -4.4552 0.0 0
M  V30 10 C -1.359 0.8154 0.0 0
M  V30 11 C -3.9588 -3.687 0.0 0
M  V30 12 C -1.3708 2.328 0.0 0
M  V30 13 O -2.6825 3.0843 0.0 0
M  V30 14 N -0.0827 3.0843 0.0 0
M  V30 15 C 1.2053 2.3398 0.0 0
M  V30 16 C -0.0945 4.597 0.0 0
M  V30 17 C 2.4935 3.0962 0.0 0
M  V30 18 C 1.1935 5.3533 0.0 0
M  V30 19 C 2.4816 4.6088 0.0 0
M  V30 20 C 3.7816 2.3517 0.0 0
M  V30 21 C 3.7698 5.3651 0.0 0
M  V30 22 C 5.0697 3.108 0.0 0
M  V30 23 C 5.0579 4.6324 0.0 0
M  V30 END ATOM
M  V30 BEGIN BOND
M  V30 1 2 1 2
M  V30 2 1 2 3
M  V30 3 1 2 4
M  V30 4 2 4 5
M  V30 5 1 4 6
M  V30 6 1 5 7
M  V30 7 1 5 8
M  V30 8 2 6 9
M  V30 9 1 7 10
M  V30 10 2 8 11
M  V30 11 1 10 12
M  V30 12 2 12 13
M  V30 13 1 12 14
M  V30 14 1 14 15
M  V30 15 1 14 16
M  V30 16 1 15 17
M  V30 17 1 16 18
M  V30 18 2 17 19
M  V30 19 1 17 20
M  V30 20 1 19 21
M  V30 21 2 20 22
M  V30 22 2 21 23
M  V30 23 1 9 11
M  V30 24 1 18 19
M  V30 25 1 22 23
M  V30 END BOND
M  V30 END CTAB
M  END
>  <Structure No>
618

>  <Catalog ID>
Z15685905

>  <MW (desalted)>
310.347

>  <ClogP>
1.531

>  <HBD>
1

>  <TPSA>
72.630

>  <RotBonds>
4

>  <Target>
Poly [ADP-ribose] polymerase-1

>  <fromRegid>
CHEMBL1544030

>  <Similarity>
1.0

$$$$
Compound 619
Actelion Java MolfileCreator 2.0

  0  0  0  0  0  0              0 V3000
M  V30 BEGIN CTAB
M  V30 COUNTS 27 29 0 0 0
M  V30 BEGIN ATOM
M  V30 1 O 0.0 0.0 0.0 0
M  V30 2 C -1.3107 -0.7439 0.0 0
M  V30 3 N -1.3225 -2.2317 0.0 0
M  V30 4 C -2.6214 0.0236 0.0 0
M  V30 5 C -2.6332 1.535 0.0 0
M  V30 6 C -3.9321 -0.7203 0.0 0
M  V30 7 O -1.3461 2.2907 0.0 0
M  V30 8 C -3.9439 2.2907 0.0 0
M  V30 9 C -5.2428 0.0472 0.0 0
M  V30 10 C -0.059 1.5468 0.0 0
M  V30 11 C -5.2546 1.5468 0.0 0
M  V30 12 C 1.228 2.3026 0.0 0
M  V30 13 O 1.2162 3.814 0.0 0
M  V30 14 N 2.5151 1.5586 0.0 0
M  V30 15 C 3.8022 2.3144 0.0 0
M  V30 16 C 5.0893 1.5704 0.0 0
M  V30 17 C 3.7904 3.8258 0.0 0
M  V30 18 C 6.3764 2.3262 0.0 0
M  V30 19 C 5.0775 0.0826 0.0 0
M  V30 20 C 2.4797 4.5815 0.0 0
M  V30 21 C 5.0775 4.5815 0.0 0
M  V30 22 C 7.6635 1.5823 0.0 0
M  V30 23 C 6.3646 -0.6612 0.0 0
M  V30 24 C 2.4679 6.093 0.0 0
M  V30 25 C 5.0657 6.093 0.0 0
M  V30 26 C 7.6517 0.0944 0.0 0
M  V30 27 C 3.755 6.8487 0.0 0
M  V30 END ATOM
M  V30 BEGIN BOND
M  V30 1 2 1 2
M  V30 2 1 2 3
M  V30 3 1 2 4
M  V30 4 2 4 5
M  V30 5 1 4 6
M  V30 6 1 5 7
M  V30 7 1 5 8
M  V30 8 2 6 9
M  V30 9 1 7 10
M  V30 10 2 8 11
M  V30 11 1 10 12
M  V30 12 2 12 13
M  V30 13 1 12 14
M  V30 14 1 14 15
M  V30 15 1 15 16
M  V30 16 1 15 17
M  V30 17 2 16 18
M  V30 18 1 16 19
M  V30 19 2 17 20
M  V30 20 1 17 21
M  V30 21 1 18 22
M  V30 22 2 19 23
M  V30 23 1 20 24
M  V30 24 2 21 25
M  V30 25 2 22 26
M  V30 26 2 24 27
M  V30 27 1 9 11
M  V30 28 1 23 26
M  V30 29 1 25 27
M  V30 END BOND
M  V30 END CTAB
M  END
>  <Structure No>
619

>  <Catalog ID>
Z15685945

>  <MW (desalted)>
360.406

>  <ClogP>
2.756

>  <HBD>
2

>  <TPSA>
81.420

>  <RotBonds>
7

>  <Target>
Poly [ADP-ribose] polymerase-1

>  <fromRegid>
CHEMBL3105430

>  <Similarity>
0.95

$$$$
Compound 620
Actelion Java MolfileCreator 2.0

  0  0  0  0  0  0              0 V3000
M  V30 BEGIN CTAB
M  V30 COUNTS 29 31 0 0 0
M  V30 BEGIN ATOM
M  V30 1 O 0.0 0.0 0.0 0
M  V30 2 C -1.3146 0.7579 0.0 0
M  V30 3 N -2.6292 0.0236 0.0 0
M  V30 4 C -1.3264 2.2739 0.0 0
M  V30 5 C -0.0355 3.0318 0.0 0
M  V30 6 C -2.641 3.0318 0.0 0
M  V30 7 O 1.2553 2.2976 0.0 0
M  V30 8 C -0.0473 4.5478 0.0 0
M  V30 9 C -2.6529 4.5478 0.0 0
M  V30 10 C 2.5463 3.0555 0.0 0
M  V30 11 C -1.3619 5.3058 0.0 0
M  V30 12 C 3.8372 2.3212 0.0 0
M  V30 13 O 3.8253 0.829 0.0 0
M  V30 14 N 5.1281 3.0792 0.0 0
M  V30 15 C 5.1163 4.5952 0.0 0
M  V30 16 C 6.419 2.3449 0.0 0
M  V30 17 C 6.4072 5.3531 0.0 0
M  V30 18 C 7.71 3.1029 0.0 0
M  V30 19 C 6.3954 6.8691 0.0 0
M  V30 20 C 7.6981 4.607 0.0 0
M  V30 21 C 9.0009 2.3686 0.0 0
M  V30 22 C 7.6863 7.6271 0.0 0
M  V30 23 C 8.989 5.365 0.0 0
M  V30 24 C 10.2918 3.1266 0.0 0
M  V30 25 C 8.989 0.8764 0.0 0
M  V30 26 C 8.9772 6.8928 0.0 0
M  V30 27 C 11.5827 2.3923 0.0 0
M  V30 28 C 10.28 0.1421 0.0 0
M  V30 29 C 11.5709 0.9 0.0 0
M  V30 END ATOM
M  V30 BEGIN BOND
M  V30 1 2 1 2
M  V30 2 1 2 3
M  V30 3 1 2 4
M  V30 4 2 4 5
M  V30 5 1 4 6
M  V30 6 1 5 7
M  V30 7 1 5 8
M  V30 8 2 6 9
M  V30 9 1 7 10
M  V30 10 2 8 11
M  V30 11 1 10 12
M  V30 12 2 12 13
M  V30 13 1 12 14
M  V30 14 1 14 15
M  V30 15 1 14 16
M  V30 16 1 15 17
M  V30 17 1 16 18
M  V30 18 2 17 19
M  V30 19 1 17 20
M  V30 20 1 18 21
M  V30 21 1 19 22
M  V30 22 2 20 23
M  V30 23 2 21 24
M  V30 24 1 21 25
M  V30 25 2 22 26
M  V30 26 1 24 27
M  V30 27 2 25 28
M  V30 28 2 27 29
M  V30 29 1 9 11
M  V30 30 1 23 26
M  V30 31 1 28 29
M  V30 END BOND
M  V30 END CTAB
M  END
>  <Structure No>
620

>  <Catalog ID>
Z15686068

>  <MW (desalted)>
388.459

>  <ClogP>
3.758

>  <HBD>
1

>  <TPSA>
72.630

>  <RotBonds>
9

>  <Target>
Poly [ADP-ribose] polymerase-1

>  <fromRegid>
CHEMBL1544030

>  <Similarity>
0.94

$$$$
Compound 621
Actelion Java MolfileCreator 2.0

  0  0  0  0  0  0              0 V3000
M  V30 BEGIN CTAB
M  V30 COUNTS 28 30 0 0 0
M  V30 BEGIN ATOM
M  V30 1 O 0.0 0.0 0.0 0
M  V30 2 C 1.281 0.7521 0.0 0
M  V30 3 N 2.562 0.0235 0.0 0
M  V30 4 C 1.2692 2.2565 0.0 0
M  V30 5 C -0.0352 3.0204 0.0 0
M  V30 6 C 2.5503 3.0204 0.0 0
M  V30 7 O -1.3398 2.28 0.0 0
M  V30 8 C -0.047 4.5247 0.0 0
M  V30 9 C 2.5385 4.5247 0.0 0
M  V30 10 C -2.6443 3.0439 0.0 0
M  V30 11 C 1.234 5.2769 0.0 0
M  V30 12 C -3.9489 2.3035 0.0 0
M  V30 13 O -3.9606 0.8226 0.0 0
M  V30 14 N -5.2534 3.0674 0.0 0
M  V30 15 C -6.558 2.327 0.0 0 CFG=2
M  V30 16 C -7.8625 3.0909 0.0 0
M  V30 17 C -6.5697 0.8461 0.0 0
M  V30 18 C -9.1671 2.3505 0.0 0
M  V30 19 C -7.8743 4.5953 0.0 0
M  V30 20 C -10.4716 3.1144 0.0 0
M  V30 21 C -9.1788 5.3474 0.0 0
M  V30 22 C -10.4834 4.6188 0.0 0
M  V30 23 C -11.7879 5.3709 0.0 0
M  V30 24 C -13.0925 4.6423 0.0 0
M  V30 25 C -11.7997 6.8753 0.0 0
M  V30 26 C -14.397 5.3945 0.0 0
M  V30 27 C -13.1042 7.6275 0.0 0
M  V30 28 C -14.4088 6.8988 0.0 0
M  V30 END ATOM
M  V30 BEGIN BOND
M  V30 1 2 1 2
M  V30 2 1 2 3
M  V30 3 1 2 4
M  V30 4 2 4 5
M  V30 5 1 4 6
M  V30 6 1 5 7
M  V30 7 1 5 8
M  V30 8 2 6 9
M  V30 9 1 7 10
M  V30 10 2 8 11
M  V30 11 1 10 12
M  V30 12 2 12 13
M  V30 13 1 12 14
M  V30 14 1 15 14 CFG=1
M  V30 15 1 15 16
M  V30 16 1 15 17
M  V30 17 2 16 18
M  V30 18 1 16 19
M  V30 19 1 18 20
M  V30 20 2 19 21
M  V30 21 2 20 22
M  V30 22 1 22 23
M  V30 23 2 23 24
M  V30 24 1 23 25
M  V30 25 1 24 26
M  V30 26 2 25 27
M  V30 27 2 26 28
M  V30 28 1 9 11
M  V30 29 1 21 22
M  V30 30 1 27 28
M  V30 END BOND
M  V30 BEGIN COLLECTION
M  V30 MDLV30/STERAC1 ATOMS=(1 15)
M  V30 END COLLECTION
M  V30 END CTAB
M  END
>  <Structure No>
621

>  <Catalog ID>
Z15686091

>  <MW (desalted)>
374.432

>  <ClogP>
3.605

>  <HBD>
2

>  <TPSA>
81.420

>  <RotBonds>
7

>  <Target>
Poly [ADP-ribose] polymerase-1

>  <fromRegid>
CHEMBL3105430

>  <Similarity>
0.93

$$$$
Compound 622
Actelion Java MolfileCreator 2.0

  0  0  0  0  0  0              0 V3000
M  V30 BEGIN CTAB
M  V30 COUNTS 27 30 0 0 0
M  V30 BEGIN ATOM
M  V30 1 O 0.0 0.0 0.0 0
M  V30 2 C -0.0117 1.5063 0.0 0
M  V30 3 N -1.318 2.2713 0.0 0
M  V30 4 C 1.2709 2.2713 0.0 0
M  V30 5 C -1.3298 3.7776 0.0 0
M  V30 6 C 1.2592 3.7776 0.0 0
M  V30 7 C 2.5537 1.5299 0.0 0
M  V30 8 N -0.047 4.5308 0.0 0
M  V30 9 C -2.6361 4.5308 0.0 0
M  V30 10 C 2.5419 4.5308 0.0 0
M  V30 11 C 3.8365 2.2948 0.0 0
M  V30 12 O -2.6479 6.0372 0.0 0
M  V30 13 N -3.9424 3.8012 0.0 0
M  V30 14 C 3.8247 3.8012 0.0 0
M  V30 15 C -5.2487 4.5543 0.0 0 CFG=2
M  V30 16 C -5.2605 6.0607 0.0 0
M  V30 17 C -6.555 3.8247 0.0 0
M  V30 18 C -6.5668 6.8139 0.0 0
M  V30 19 C -4.166 7.0728 0.0 0
M  V30 20 C -7.8613 4.5779 0.0 0
M  V30 21 N -6.2725 8.285 0.0 0
M  V30 22 C -7.8731 6.0842 0.0 0
M  V30 23 N -4.7897 8.4497 0.0 0
M  V30 24 C -7.2846 9.403 0.0 0
M  V30 25 C -8.2967 10.521 0.0 0
M  V30 26 C -8.4026 8.4144 0.0 0
M  V30 27 C -6.1902 10.415 0.0 0
M  V30 END ATOM
M  V30 BEGIN BOND
M  V30 1 2 1 2
M  V30 2 1 2 3
M  V30 3 1 2 4
M  V30 4 1 3 5
M  V30 5 2 4 6
M  V30 6 1 4 7
M  V30 7 2 5 8
M  V30 8 1 5 9
M  V30 9 1 6 10
M  V30 10 2 7 11
M  V30 11 2 9 12
M  V30 12 1 9 13
M  V30 13 2 10 14
M  V30 14 1 15 13 CFG=1
M  V30 15 1 15 16
M  V30 16 1 15 17
M  V30 17 2 16 18
M  V30 18 1 16 19
M  V30 19 1 17 20
M  V30 20 1 18 21
M  V30 21 1 18 22
M  V30 22 2 19 23
M  V30 23 1 21 24
M  V30 24 1 24 25
M  V30 25 1 24 26
M  V30 26 1 24 27
M  V30 27 1 6 8
M  V30 28 1 11 14
M  V30 29 1 20 22
M  V30 30 1 21 23
M  V30 END BOND
M  V30 BEGIN COLLECTION
M  V30 MDLV30/STERAC1 ATOMS=(1 15)
M  V30 END COLLECTION
M  V30 END CTAB
M  END
>  <Structure No>
622

>  <Catalog ID>
Z827566808

>  <MW (desalted)>
365.429

>  <ClogP>
2.299

>  <HBD>
2

>  <TPSA>
88.380

>  <RotBonds>
3

>  <Target>
Tankyrase1, parp3

>  <fromRegid>


>  <Similarity>


$$$$
Compound 623
Actelion Java MolfileCreator 2.0

  0  0  0  0  0  0              0 V3000
M  V30 BEGIN CTAB
M  V30 COUNTS 33 36 0 0 0
M  V30 BEGIN ATOM
M  V30 1 O 0.0 0.0 0.0 0
M  V30 2 C -0.0117 1.5057 0.0 0
M  V30 3 N -1.3175 2.2585 0.0 0
M  V30 4 C 1.2704 2.2585 0.0 0
M  V30 5 C -1.3292 3.7643 0.0 0
M  V30 6 C 1.2586 3.7643 0.0 0
M  V30 7 C 2.5526 1.5174 0.0 0
M  V30 8 N -0.047 4.5171 0.0 0
M  V30 9 C -2.635 4.5171 0.0 0
M  V30 10 C 2.5409 4.5171 0.0 0
M  V30 11 C 3.8348 2.2703 0.0 0
M  V30 12 C -3.9407 3.7878 0.0 0
M  V30 13 C 3.8231 3.7878 0.0 0
M  V30 14 C -5.2464 4.5406 0.0 0
M  V30 15 O -5.2582 6.0464 0.0 0
M  V30 16 N -6.5522 3.8113 0.0 0
M  V30 17 C -7.8579 4.5642 0.0 0
M  V30 18 C -7.8697 6.0699 0.0 0
M  V30 19 C -9.1637 3.8348 0.0 0
M  V30 20 C -9.1754 6.8228 0.0 0
M  V30 21 C -10.4694 4.5877 0.0 0
M  V30 22 C -10.4812 6.0934 0.0 0
M  V30 23 C -11.7869 6.8463 0.0 0
M  V30 24 O -11.7987 8.352 0.0 0
M  V30 25 N -13.0927 6.1169 0.0 0
M  V30 26 C -14.3984 6.8698 0.0 0
M  V30 27 C -15.7042 6.1405 0.0 0
M  V30 28 C -14.4102 8.3755 0.0 0
M  V30 29 O -15.7159 4.6583 0.0 0
M  V30 30 C -17.0099 6.8933 0.0 0
M  V30 31 C -15.7159 9.1284 0.0 0
M  V30 32 C -17.0217 3.9289 0.0 0
M  V30 33 C -17.0217 8.3991 0.0 0
M  V30 END ATOM
M  V30 BEGIN BOND
M  V30 1 2 1 2
M  V30 2 1 2 3
M  V30 3 1 2 4
M  V30 4 1 3 5
M  V30 5 2 4 6
M  V30 6 1 4 7
M  V30 7 2 5 8
M  V30 8 1 5 9
M  V30 9 1 6 10
M  V30 10 2 7 11
M  V30 11 1 9 12
M  V30 12 2 10 13
M  V30 13 1 12 14
M  V30 14 2 14 15
M  V30 15 1 14 16
M  V30 16 1 16 17
M  V30 17 2 17 18
M  V30 18 1 17 19
M  V30 19 1 18 20
M  V30 20 2 19 21
M  V30 21 2 20 22
M  V30 22 1 22 23
M  V30 23 2 23 24
M  V30 24 1 23 25
M  V30 25 1 25 26
M  V30 26 2 26 27
M  V30 27 1 26 28
M  V30 28 1 27 29
M  V30 29 1 27 30
M  V30 30 2 28 31
M  V30 31 1 29 32
M  V30 32 2 30 33
M  V30 33 1 6 8
M  V30 34 1 11 13
M  V30 35 1 21 22
M  V30 36 1 31 33
M  V30 END BOND
M  V30 END CTAB
M  END
>  <Structure No>
623

>  <Catalog ID>
Z26504319

>  <MW (desalted)>
442.467

>  <ClogP>
1.709

>  <HBD>
3

>  <TPSA>
108.890

>  <RotBonds>
7

>  <Target>
Poly [ADP-ribose] polymerase 2

>  <fromRegid>
CHEMBL2314698

>  <Similarity>
1.0

$$$$
Compound 624
Actelion Java MolfileCreator 2.0

  0  0  0  0  0  0              0 V3000
M  V30 BEGIN CTAB
M  V30 COUNTS 23 25 0 0 0
M  V30 BEGIN ATOM
M  V30 1 Cl 0.0 0.0 0.0 0
M  V30 2 C -1.3145 0.7579 0.0 0
M  V30 3 C -1.3263 2.2737 0.0 0
M  V30 4 C -2.629 0.0236 0.0 0
M  V30 5 C -0.0355 3.0316 0.0 0
M  V30 6 C -2.6408 3.0316 0.0 0
M  V30 7 C -3.9435 0.7815 0.0 0
M  V30 8 O -0.0473 4.5474 0.0 0
M  V30 9 N 1.2552 2.2974 0.0 0
M  V30 10 C -3.9553 2.2974 0.0 0
M  V30 11 F -5.258 0.0473 0.0 0
M  V30 12 C 2.5461 3.0553 0.0 0
M  V30 13 C 3.8369 2.3211 0.0 0
M  V30 14 C 5.1277 3.079 0.0 0
M  V30 15 C 6.4185 2.3447 0.0 0
M  V30 16 N 7.7804 2.9724 0.0 0
M  V30 17 N 6.5606 0.8644 0.0 0
M  V30 18 C 8.7752 1.8711 0.0 0
M  V30 19 C 8.0173 0.5684 0.0 0
M  V30 20 C 10.2673 1.8829 0.0 0
M  V30 21 C 8.7633 -0.7223 0.0 0
M  V30 22 C 11.0134 0.5921 0.0 0
M  V30 23 C 10.2555 -0.7105 0.0 0
M  V30 END ATOM
M  V30 BEGIN BOND
M  V30 1 1 1 2
M  V30 2 2 2 3
M  V30 3 1 2 4
M  V30 4 1 3 5
M  V30 5 1 3 6
M  V30 6 2 4 7
M  V30 7 2 5 8
M  V30 8 1 5 9
M  V30 9 2 6 10
M  V30 10 1 7 11
M  V30 11 1 9 12
M  V30 12 1 12 13
M  V30 13 1 13 14
M  V30 14 1 14 15
M  V30 15 2 15 16
M  V30 16 1 15 17
M  V30 17 1 16 18
M  V30 18 1 17 19
M  V30 19 1 18 20
M  V30 20 1 19 21
M  V30 21 2 20 22
M  V30 22 2 21 23
M  V30 23 1 7 10
M  V30 24 2 18 19
M  V30 25 1 22 23
M  V30 END BOND
M  V30 END CTAB
M  END
>  <Structure No>
624

>  <Catalog ID>
Z196821150

>  <MW (desalted)>
331.772

>  <ClogP>
2.828

>  <HBD>
2

>  <TPSA>
57.780

>  <RotBonds>
5

>  <Target>
ATM

>  <fromRegid>


>  <Similarity>


$$$$
Compound 625
Actelion Java MolfileCreator 2.0

  0  0  0  0  0  0              0 V3000
M  V30 BEGIN CTAB
M  V30 COUNTS 28 31 0 0 0
M  V30 BEGIN ATOM
M  V30 1 O 0.0 0.0 0.0 0
M  V30 2 C -0.0118 -1.489 0.0 0
M  V30 3 N -1.3235 -2.2216 0.0 0
M  V30 4 N 1.2762 -2.2216 0.0 0
M  V30 5 C -1.3353 -3.7106 0.0 0
M  V30 6 C -2.6352 -1.4653 0.0 0
M  V30 7 C 1.2644 -3.7106 0.0 0
M  V30 8 C -0.0472 -4.4433 0.0 0
M  V30 9 C -2.6471 -4.4433 0.0 0
M  V30 10 C -3.947 -2.198 0.0 0
M  V30 11 O 2.5525 -4.4433 0.0 0
M  V30 12 C -0.059 -5.9323 0.0 0
M  V30 13 C -2.6589 -5.9323 0.0 0
M  V30 14 C -5.2587 -1.4417 0.0 0
M  V30 15 C -1.3708 -6.665 0.0 0
M  V30 16 O -5.2705 0.0709 0.0 0
M  V30 17 N -6.5705 -2.1744 0.0 0
M  V30 18 C -7.8822 -1.418 0.0 0
M  V30 19 C -6.5823 -3.6634 0.0 0
M  V30 20 C -9.1939 -2.1507 0.0 0
M  V30 21 N -9.3594 -3.6279 0.0 0
M  V30 22 N -10.5766 -1.5244 0.0 0
M  V30 23 N -10.8366 -3.9234 0.0 0
M  V30 24 C -11.5929 -2.6234 0.0 0
M  V30 25 C -11.0493 -0.0827 0.0 0
M  V30 26 C -13.0701 -2.3044 0.0 0
M  V30 27 C -12.5265 0.2363 0.0 0
M  V30 28 C -13.5428 -0.8626 0.0 0
M  V30 END ATOM
M  V30 BEGIN BOND
M  V30 1 2 1 2
M  V30 2 1 2 3
M  V30 3 1 2 4
M  V30 4 1 3 5
M  V30 5 1 3 6
M  V30 6 1 4 7
M  V30 7 2 5 8
M  V30 8 1 5 9
M  V30 9 1 6 10
M  V30 10 2 7 11
M  V30 11 1 8 12
M  V30 12 2 9 13
M  V30 13 1 10 14
M  V30 14 2 12 15
M  V30 15 2 14 16
M  V30 16 1 14 17
M  V30 17 1 17 18
M  V30 18 1 17 19
M  V30 19 1 18 20
M  V30 20 2 20 21
M  V30 21 1 20 22
M  V30 22 1 21 23
M  V30 23 1 22 24
M  V30 24 1 22 25
M  V30 25 1 24 26
M  V30 26 2 25 27
M  V30 27 2 26 28
M  V30 28 1 7 8
M  V30 29 1 13 15
M  V30 30 2 23 24
M  V30 31 1 27 28
M  V30 END BOND
M  V30 END CTAB
M  END
>  <Structure No>
625

>  <Catalog ID>
Z978980288

>  <MW (desalted)>
378.385

>  <ClogP>
0.164

>  <HBD>
1

>  <TPSA>
99.910

>  <RotBonds>
5

>  <Target>
parp3

>  <fromRegid>


>  <Similarity>


$$$$
Compound 626
Actelion Java MolfileCreator 2.0

  0  0  0  0  0  0              0 V3000
M  V30 BEGIN CTAB
M  V30 COUNTS 22 23 0 0 0
M  V30 BEGIN ATOM
M  V30 1 S 0.0 0.0 0.0 0 CFG=2
M  V30 2 O -0.0118 1.5134 0.0 0
M  V30 3 C 1.2888 -0.733 0.0 0
M  V30 4 C -1.3124 -0.733 0.0 0
M  V30 5 C 2.5776 0.0236 0.0 0
M  V30 6 C 1.2769 -2.2229 0.0 0
M  V30 7 C -2.6249 0.0236 0.0 0
M  V30 8 C 3.8664 -0.7094 0.0 0
M  V30 9 C 2.5658 -2.9678 0.0 0
M  V30 10 N -3.9373 -0.7094 0.0 0
M  V30 11 C 3.8546 -2.1992 0.0 0
M  V30 12 C -5.2498 0.0472 0.0 0
M  V30 13 O -5.2616 1.5607 0.0 0
M  V30 14 C -6.5623 -0.6857 0.0 0
M  V30 15 C -6.5741 -2.1756 0.0 0
M  V30 16 C -7.8747 0.0709 0.0 0
M  V30 17 C -7.8866 -2.9205 0.0 0
M  V30 18 C -9.1872 -0.6621 0.0 0
M  V30 19 N -7.8984 -4.4103 0.0 0 CHG=1
M  V30 20 C -9.199 -2.1519 0.0 0
M  V30 21 O -6.6096 -5.1434 0.0 0
M  V30 22 O -9.2109 -5.1434 0.0 0 CHG=-1
M  V30 END ATOM
M  V30 BEGIN BOND
M  V30 1 2 1 2
M  V30 2 1 1 3
M  V30 3 1 1 4 CFG=3
M  V30 4 2 3 5
M  V30 5 1 3 6
M  V30 6 1 4 7
M  V30 7 1 5 8
M  V30 8 2 6 9
M  V30 9 1 7 10
M  V30 10 2 8 11
M  V30 11 1 10 12
M  V30 12 2 12 13
M  V30 13 1 12 14
M  V30 14 2 14 15
M  V30 15 1 14 16
M  V30 16 1 15 17
M  V30 17 2 16 18
M  V30 18 1 17 19
M  V30 19 2 17 20
M  V30 20 2 19 21
M  V30 21 1 19 22
M  V30 22 1 9 11
M  V30 23 1 18 20
M  V30 END BOND
M  V30 BEGIN COLLECTION
M  V30 MDLV30/STERAC1 ATOMS=(1 1)
M  V30 END COLLECTION
M  V30 END CTAB
M  END
>  <Structure No>
626

>  <Catalog ID>
Z1171303022

>  <MW (desalted)>
318.348

>  <ClogP>
1.915

>  <HBD>
1

>  <TPSA>
89.310

>  <RotBonds>
6

>  <Target>
parp14

>  <fromRegid>


>  <Similarity>


$$$$
Compound 627
Actelion Java MolfileCreator 2.0

  0  0  0  0  0  0              0 V3000
M  V30 BEGIN CTAB
M  V30 COUNTS 29 32 0 0 0
M  V30 BEGIN ATOM
M  V30 1 S 0.0 0.0 0.0 0
M  V30 2 C -1.5057 0.0117 0.0 0
M  V30 3 C 0.447 1.4351 0.0 0
M  V30 4 N -1.9763 1.4469 0.0 0
M  V30 5 C -2.3998 -1.1881 0.0 0
M  V30 6 C -0.7764 2.3292 0.0 0
M  V30 7 C -1.7998 -2.5409 0.0 0
M  V30 8 C -3.8937 -1.0234 0.0 0
M  V30 9 C -0.7881 3.8349 0.0 0
M  V30 10 C -2.6938 -3.7408 0.0 0
M  V30 11 C -4.7878 -2.2233 0.0 0
M  V30 12 O -2.0939 4.5878 0.0 0
M  V30 13 N 0.494 4.5878 0.0 0
M  V30 14 C -4.1878 -3.5761 0.0 0
M  V30 15 C 0.4823 6.0936 0.0 0
M  V30 16 C -5.0819 -4.776 0.0 0
M  V30 17 C 1.7645 6.8464 0.0 0
M  V30 18 C -0.8234 6.8464 0.0 0
M  V30 19 C 1.7527 8.3522 0.0 0
M  V30 20 C -0.8352 8.3522 0.0 0
M  V30 21 C 0.447 9.1051 0.0 0
M  V30 22 N 0.4352 10.6108 0.0 0
M  V30 23 C 1.7175 11.3637 0.0 0
M  V30 24 C -0.8705 11.3637 0.0 0
M  V30 25 C 1.7057 12.8695 0.0 0
M  V30 26 C -0.8822 12.8695 0.0 0
M  V30 27 N 0.3999 13.6223 0.0 0
M  V30 28 C 0.3882 15.1281 0.0 0
M  V30 29 C -0.9175 15.881 0.0 0
M  V30 END ATOM
M  V30 BEGIN BOND
M  V30 1 1 1 2
M  V30 2 1 1 3
M  V30 3 2 2 4
M  V30 4 1 2 5
M  V30 5 2 3 6
M  V30 6 2 5 7
M  V30 7 1 5 8
M  V30 8 1 6 9
M  V30 9 1 7 10
M  V30 10 2 8 11
M  V30 11 2 9 12
M  V30 12 1 9 13
M  V30 13 2 10 14
M  V30 14 1 13 15
M  V30 15 1 14 16
M  V30 16 2 15 17
M  V30 17 1 15 18
M  V30 18 1 17 19
M  V30 19 2 18 20
M  V30 20 2 19 21
M  V30 21 1 21 22
M  V30 22 1 22 23
M  V30 23 1 22 24
M  V30 24 1 23 25
M  V30 25 1 24 26
M  V30 26 1 25 27
M  V30 27 1 27 28
M  V30 28 1 28 29
M  V30 29 1 4 6
M  V30 30 1 11 14
M  V30 31 1 20 21
M  V30 32 1 26 27
M  V30 END BOND
M  V30 END CTAB
M  END
>  <Structure No>
627

>  <Catalog ID>
Z90819990

>  <MW (desalted)>
406.544

>  <ClogP>
5.247

>  <HBD>
1

>  <TPSA>
48.470

>  <RotBonds>
5

>  <Target>
Serine/threonine-protein kinase Chk1

>  <fromRegid>
CHEMBL2037092

>  <Similarity>
0.95

$$$$
Compound 628
Actelion Java MolfileCreator 2.0

  0  0  0  0  0  0              0 V3000
M  V30 BEGIN CTAB
M  V30 COUNTS 25 27 0 0 0
M  V30 BEGIN ATOM
M  V30 1 O 0.0 0.0 0.0 0
M  V30 2 C -0.3189 -1.4528 0.0 0
M  V30 3 N -1.7008 -2.0552 0.0 0
M  V30 4 C 0.6732 -2.5513 0.0 0
M  V30 5 C -1.5591 -3.5316 0.0 0
M  V30 6 C -3.0119 -1.2992 0.0 0
M  V30 7 C -0.0826 -3.8387 0.0 0
M  V30 8 C -4.323 -2.0434 0.0 0 CFG=2
M  V30 9 N -5.6341 -1.2874 0.0 0
M  V30 10 C -4.3348 -3.5316 0.0 0
M  V30 11 C -6.9452 -2.0316 0.0 0
M  V30 12 C -3.0474 -4.264 0.0 0
M  V30 13 C -5.6459 -4.264 0.0 0
M  V30 14 O -6.957 -3.5198 0.0 0
M  V30 15 C -8.2563 -1.2756 0.0 0
M  V30 16 C -3.0592 -5.7522 0.0 0
M  V30 17 C -5.6577 -5.7522 0.0 0
M  V30 18 C -9.5674 -2.0197 0.0 0
M  V30 19 C -8.2681 0.2362 0.0 0
M  V30 20 C -4.3703 -6.4845 0.0 0
M  V30 21 C -10.8785 -1.2638 0.0 0
M  V30 22 C -9.5792 -3.508 0.0 0
M  V30 23 C -9.5792 0.9921 0.0 0
M  V30 24 C -10.8903 0.248 0.0 0
M  V30 25 C -9.591 2.504 0.0 0
M  V30 END ATOM
M  V30 BEGIN BOND
M  V30 1 2 1 2
M  V30 2 1 2 3
M  V30 3 1 2 4
M  V30 4 1 3 5
M  V30 5 1 3 6
M  V30 6 1 4 7
M  V30 7 1 6 8
M  V30 8 1 8 9 CFG=1
M  V30 9 1 8 10
M  V30 10 1 9 11
M  V30 11 2 10 12
M  V30 12 1 10 13
M  V30 13 2 11 14
M  V30 14 1 11 15
M  V30 15 1 12 16
M  V30 16 2 13 17
M  V30 17 2 15 18
M  V30 18 1 15 19
M  V30 19 2 16 20
M  V30 20 1 18 21
M  V30 21 1 18 22
M  V30 22 2 19 23
M  V30 23 2 21 24
M  V30 24 1 23 25
M  V30 25 1 5 7
M  V30 26 1 17 20
M  V30 27 1 23 24
M  V30 END BOND
M  V30 BEGIN COLLECTION
M  V30 MDLV30/STERAC1 ATOMS=(1 8)
M  V30 END COLLECTION
M  V30 END CTAB
M  END
>  <Structure No>
628

>  <Catalog ID>
Z437058752

>  <MW (desalted)>
336.427

>  <ClogP>
3.158

>  <HBD>
1

>  <TPSA>
49.410

>  <RotBonds>
5

>  <Target>
Poly [ADP-ribose] polymerase-1

>  <fromRegid>
CHEMBL596390

>  <Similarity>
0.85

$$$$
Compound 629
Actelion Java MolfileCreator 2.0

  0  0  0  0  0  0              0 V3000
M  V30 BEGIN CTAB
M  V30 COUNTS 27 30 0 0 0
M  V30 BEGIN ATOM
M  V30 1 O 0.0 0.0 0.0 0
M  V30 2 C -1.1189 1.0128 0.0 0
M  V30 3 N -0.9775 2.5086 0.0 0
M  V30 4 C -2.5911 0.7184 0.0 0
M  V30 5 C -2.3555 3.1329 0.0 0
M  V30 6 C 0.3062 3.2624 0.0 0
M  V30 7 C -3.3567 2.0257 0.0 0
M  V30 8 C 0.2944 4.77 0.0 0 CFG=2
M  V30 9 N 1.5782 5.5356 0.0 0
M  V30 10 C -1.0128 5.5356 0.0 0
M  V30 11 C 1.5664 7.0431 0.0 0
M  V30 12 C -2.3202 4.7936 0.0 0
M  V30 13 C -1.0246 7.0431 0.0 0
M  V30 14 O 0.2591 7.7969 0.0 0
M  V30 15 C 2.8502 7.7969 0.0 0
M  V30 16 C -3.6275 5.5591 0.0 0
M  V30 17 C -2.332 7.7969 0.0 0
M  V30 18 C 4.134 7.0549 0.0 0
M  V30 19 C 2.8384 9.3045 0.0 0
M  V30 20 C -3.6393 7.0667 0.0 0
M  V30 21 C 5.4178 7.8087 0.0 0
M  V30 22 C 4.1222 10.0583 0.0 0
M  V30 23 C 5.406 9.3163 0.0 0
M  V30 24 C 6.7016 7.0667 0.0 0
M  V30 25 C 6.6898 10.0701 0.0 0
M  V30 26 C 7.9854 7.8205 0.0 0
M  V30 27 C 7.9736 9.3398 0.0 0
M  V30 END ATOM
M  V30 BEGIN BOND
M  V30 1 2 1 2
M  V30 2 1 2 3
M  V30 3 1 2 4
M  V30 4 1 3 5
M  V30 5 1 3 6
M  V30 6 1 4 7
M  V30 7 1 6 8
M  V30 8 1 8 9 CFG=1
M  V30 9 1 8 10
M  V30 10 1 9 11
M  V30 11 2 10 12
M  V30 12 1 10 13
M  V30 13 2 11 14
M  V30 14 1 11 15
M  V30 15 1 12 16
M  V30 16 2 13 17
M  V30 17 2 15 18
M  V30 18 1 15 19
M  V30 19 2 16 20
M  V30 20 1 18 21
M  V30 21 2 19 22
M  V30 22 2 21 23
M  V30 23 1 21 24
M  V30 24 1 23 25
M  V30 25 1 24 26
M  V30 26 1 25 27
M  V30 27 1 5 7
M  V30 28 1 17 20
M  V30 29 1 22 23
M  V30 30 1 26 27
M  V30 END BOND
M  V30 BEGIN COLLECTION
M  V30 MDLV30/STERAC1 ATOMS=(1 8)
M  V30 END COLLECTION
M  V30 END CTAB
M  END
>  <Structure No>
629

>  <Catalog ID>
Z437056100

>  <MW (desalted)>
362.465

>  <ClogP>
4.072

>  <HBD>
1

>  <TPSA>
49.410

>  <RotBonds>
5

>  <Target>
Poly [ADP-ribose] polymerase-1

>  <fromRegid>
CHEMBL596390

>  <Similarity>
0.86

$$$$
Compound 630
Actelion Java MolfileCreator 2.0

  0  0  0  0  0  0              0 V3000
M  V30 BEGIN CTAB
M  V30 COUNTS 21 23 0 0 0
M  V30 BEGIN ATOM
M  V30 1 O 0.0 0.0 0.0 0
M  V30 2 C 1.4143 -0.4478 0.0 0
M  V30 3 N 2.6166 0.4478 0.0 0
M  V30 4 N 1.8622 -1.8622 0.0 0
M  V30 5 C 2.6048 1.9565 0.0 0
M  V30 6 C 3.8188 -0.4243 0.0 0
M  V30 7 C 3.3473 -1.8504 0.0 0
M  V30 8 C 3.8895 2.7108 0.0 0
M  V30 9 C 1.2965 2.7108 0.0 0
M  V30 10 C 3.8777 4.2195 0.0 0
M  V30 11 C 1.2847 4.2195 0.0 0
M  V30 12 C 2.5694 4.9739 0.0 0
M  V30 13 C 2.5576 6.4825 0.0 0
M  V30 14 O 3.8423 7.2369 0.0 0
M  V30 15 N 1.2493 7.2369 0.0 0
M  V30 16 C 1.2375 8.7455 0.0 0
M  V30 17 C 2.5223 9.4999 0.0 0
M  V30 18 C -0.0707 9.4999 0.0 0
M  V30 19 N 2.5105 11.0085 0.0 0
M  V30 20 C -0.0825 11.0085 0.0 0
M  V30 21 C 1.2022 11.7629 0.0 0
M  V30 END ATOM
M  V30 BEGIN BOND
M  V30 1 2 1 2
M  V30 2 1 2 3
M  V30 3 1 2 4
M  V30 4 1 3 5
M  V30 5 1 3 6
M  V30 6 1 4 7
M  V30 7 2 5 8
M  V30 8 1 5 9
M  V30 9 1 8 10
M  V30 10 2 9 11
M  V30 11 2 10 12
M  V30 12 1 12 13
M  V30 13 2 13 14
M  V30 14 1 13 15
M  V30 15 1 15 16
M  V30 16 2 16 17
M  V30 17 1 16 18
M  V30 18 1 17 19
M  V30 19 2 18 20
M  V30 20 2 19 21
M  V30 21 1 6 7
M  V30 22 1 11 12
M  V30 23 1 20 21
M  V30 END BOND
M  V30 END CTAB
M  END
>  <Structure No>
630

>  <Catalog ID>
Z218690472

>  <MW (desalted)>
282.297

>  <ClogP>
0.868

>  <HBD>
2

>  <TPSA>
74.330

>  <RotBonds>
3

>  <Target>
Tankyrase-1

>  <fromRegid>
CHEMBL2381963

>  <Similarity>
0.87

$$$$
Compound 631
Actelion Java MolfileCreator 2.0

  0  0  0  0  0  0              0 V3000
M  V30 BEGIN CTAB
M  V30 COUNTS 29 32 0 0 0
M  V30 BEGIN ATOM
M  V30 1 F 0.0 0.0 0.0 0
M  V30 2 C 1.4849 -0.1425 0.0 0
M  V30 3 C 2.0907 -1.5086 0.0 0
M  V30 4 C 2.3639 1.0929 0.0 0
M  V30 5 C 3.5756 -1.6512 0.0 0
M  V30 6 C 3.8489 0.9503 0.0 0
M  V30 7 C 4.4547 -0.4157 0.0 0
M  V30 8 N 5.9396 -0.5583 0.0 0
M  V30 9 N 6.6762 -1.8531 0.0 0
M  V30 10 C 6.9375 0.5702 0.0 0
M  V30 11 C 8.1373 -1.5324 0.0 0
M  V30 12 C 8.3036 -0.0356 0.0 0
M  V30 13 C 6.6168 2.0551 0.0 0
M  V30 14 C 9.5985 0.7246 0.0 0 CFG=1
M  V30 15 N 10.8933 -0.0118 0.0 0
M  V30 16 C 9.5866 2.2452 0.0 0
M  V30 17 C 12.1882 0.7484 0.0 0
M  V30 18 O 12.1763 2.2689 0.0 0
M  V30 19 C 13.483 0.0118 0.0 0
M  V30 20 N 13.4712 -1.4849 0.0 0
M  V30 21 C 14.7779 0.7721 0.0 0
M  V30 22 C 14.766 -2.2333 0.0 0
M  V30 23 C 16.0728 0.0356 0.0 0
M  V30 24 O 14.7541 -3.7301 0.0 0
M  V30 25 C 16.0609 -1.4611 0.0 0
M  V30 26 C 17.3676 0.7959 0.0 0
M  V30 27 C 17.3557 -2.2095 0.0 0
M  V30 28 C 18.6625 0.0593 0.0 0
M  V30 29 C 18.6506 -1.4374 0.0 0
M  V30 END ATOM
M  V30 BEGIN BOND
M  V30 1 1 1 2
M  V30 2 2 2 3
M  V30 3 1 2 4
M  V30 4 1 3 5
M  V30 5 2 4 6
M  V30 6 2 5 7
M  V30 7 1 7 8
M  V30 8 1 8 9
M  V30 9 1 8 10
M  V30 10 2 9 11
M  V30 11 2 10 12
M  V30 12 1 10 13
M  V30 13 1 12 14
M  V30 14 1 14 15 CFG=3
M  V30 15 1 14 16
M  V30 16 1 15 17
M  V30 17 2 17 18
M  V30 18 1 17 19
M  V30 19 1 19 20
M  V30 20 2 19 21
M  V30 21 1 20 22
M  V30 22 1 21 23
M  V30 23 2 22 24
M  V30 24 1 22 25
M  V30 25 1 23 26
M  V30 26 1 25 27
M  V30 27 2 26 28
M  V30 28 2 27 29
M  V30 29 1 6 7
M  V30 30 1 11 12
M  V30 31 2 23 25
M  V30 32 1 28 29
M  V30 END BOND
M  V30 BEGIN COLLECTION
M  V30 MDLV30/STERAC1 ATOMS=(1 14)
M  V30 END COLLECTION
M  V30 END CTAB
M  END
>  <Structure No>
631

>  <Catalog ID>
Z366330142

>  <MW (desalted)>
390.410

>  <ClogP>
2.894

>  <HBD>
2

>  <TPSA>
76.020

>  <RotBonds>
4

>  <Target>
Tankyrase1, parp3

>  <fromRegid>


>  <Similarity>


$$$$
Compound 632
Actelion Java MolfileCreator 2.0

  0  0  0  0  0  0              0 V3000
M  V30 BEGIN CTAB
M  V30 COUNTS 26 29 0 0 0
M  V30 BEGIN ATOM
M  V30 1 O 0.0 0.0 0.0 0
M  V30 2 C -0.0118 1.5127 0.0 0
M  V30 3 N -1.3236 2.2691 0.0 0
M  V30 4 C 1.2763 2.2691 0.0 0
M  V30 5 N -1.3354 3.7819 0.0 0
M  V30 6 C -2.6355 1.5245 0.0 0
M  V30 7 C 1.2645 3.7819 0.0 0
M  V30 8 C 2.5646 1.5245 0.0 0
M  V30 9 C -0.0472 4.5382 0.0 0
M  V30 10 C -2.6473 0.0354 0.0 0
M  V30 11 C 2.5527 4.5382 0.0 0
M  V30 12 C 3.8528 2.2809 0.0 0
M  V30 13 O -1.3591 -0.7091 0.0 0
M  V30 14 N -3.9591 -0.7091 0.0 0
M  V30 15 C 3.8409 3.8055 0.0 0
M  V30 16 C -3.971 -2.1982 0.0 0
M  V30 17 C -5.2828 -2.9309 0.0 0
M  V30 18 C -2.6827 -2.9309 0.0 0
M  V30 19 C -5.2946 -4.4201 0.0 0
M  V30 20 C -2.6946 -4.4201 0.0 0
M  V30 21 C -6.6065 -5.1646 0.0 0
M  V30 22 C -4.0064 -5.1646 0.0 0
M  V30 23 O -7.9892 -4.5382 0.0 0
M  V30 24 N -6.7719 -6.6419 0.0 0
M  V30 25 C -9.0056 -5.6374 0.0 0
M  V30 26 N -8.2492 -6.9374 0.0 0
M  V30 END ATOM
M  V30 BEGIN BOND
M  V30 1 2 1 2
M  V30 2 1 2 3
M  V30 3 1 2 4
M  V30 4 1 3 5
M  V30 5 1 3 6
M  V30 6 2 4 7
M  V30 7 1 4 8
M  V30 8 2 5 9
M  V30 9 1 6 10
M  V30 10 1 7 11
M  V30 11 2 8 12
M  V30 12 2 10 13
M  V30 13 1 10 14
M  V30 14 2 11 15
M  V30 15 1 14 16
M  V30 16 2 16 17
M  V30 17 1 16 18
M  V30 18 1 17 19
M  V30 19 2 18 20
M  V30 20 1 19 21
M  V30 21 2 19 22
M  V30 22 1 21 23
M  V30 23 2 21 24
M  V30 24 1 23 25
M  V30 25 1 24 26
M  V30 26 1 7 9
M  V30 27 1 12 15
M  V30 28 1 20 22
M  V30 29 2 25 26
M  V30 END BOND
M  V30 END CTAB
M  END
>  <Structure No>
632

>  <Catalog ID>
Z354554712

>  <MW (desalted)>
347.328

>  <ClogP>
-0.653

>  <HBD>
1

>  <TPSA>
100.690

>  <RotBonds>
4

>  <Target>
DNA_pk

>  <fromRegid>


>  <Similarity>


$$$$
Compound 633
Actelion Java MolfileCreator 2.0

  0  0  0  0  0  0              0 V3000
M  V30 BEGIN CTAB
M  V30 COUNTS 26 28 0 0 0
M  V30 BEGIN ATOM
M  V30 1 O 0.0 0.0 0.0 0
M  V30 2 C -1.3054 0.7526 0.0 0
M  V30 3 N -2.6108 0.0235 0.0 0
M  V30 4 C -1.3171 2.258 0.0 0
M  V30 5 C -3.9162 0.7761 0.0 0
M  V30 6 C -2.6226 3.0107 0.0 0
M  V30 7 C -0.0352 3.0107 0.0 0
M  V30 8 N -3.928 2.2815 0.0 0
M  V30 9 C -5.2216 0.047 0.0 0
M  V30 10 C -2.6343 4.516 0.0 0
M  V30 11 C -0.047 4.516 0.0 0
M  V30 12 C -6.5271 0.7997 0.0 0
M  V30 13 C -1.3524 5.2687 0.0 0
M  V30 14 C -7.8325 0.0705 0.0 0
M  V30 15 O -7.8443 -1.4112 0.0 0
M  V30 16 N -9.1379 0.8232 0.0 0
M  V30 17 C -10.4433 0.094 0.0 0
M  V30 18 C -11.7488 0.8467 0.0 0
M  V30 19 C -13.0542 0.1176 0.0 0 CFG=1
M  V30 20 C -14.3596 0.8702 0.0 0
M  V30 21 C -13.066 -1.3642 0.0 0
M  V30 22 C -15.665 0.1411 0.0 0
M  V30 23 C -14.3714 2.3756 0.0 0
M  V30 24 C -16.9705 0.8938 0.0 0
M  V30 25 C -15.6768 3.1283 0.0 0
M  V30 26 C -16.9822 2.3991 0.0 0
M  V30 END ATOM
M  V30 BEGIN BOND
M  V30 1 2 1 2
M  V30 2 1 2 3
M  V30 3 1 2 4
M  V30 4 1 3 5
M  V30 5 2 4 6
M  V30 6 1 4 7
M  V30 7 2 5 8
M  V30 8 1 5 9
M  V30 9 1 6 10
M  V30 10 2 7 11
M  V30 11 1 9 12
M  V30 12 2 10 13
M  V30 13 1 12 14
M  V30 14 2 14 15
M  V30 15 1 14 16
M  V30 16 1 16 17
M  V30 17 1 17 18
M  V30 18 1 18 19
M  V30 19 1 19 20
M  V30 20 1 19 21 CFG=3
M  V30 21 2 20 22
M  V30 22 1 20 23
M  V30 23 1 22 24
M  V30 24 2 23 25
M  V30 25 2 24 26
M  V30 26 1 6 8
M  V30 27 1 11 13
M  V30 28 1 25 26
M  V30 END BOND
M  V30 BEGIN COLLECTION
M  V30 MDLV30/STERAC1 ATOMS=(1 19)
M  V30 END COLLECTION
M  V30 END CTAB
M  END
>  <Structure No>
633

>  <Catalog ID>
Z982731688

>  <MW (desalted)>
349.426

>  <ClogP>
2.057

>  <HBD>
2

>  <TPSA>
70.560

>  <RotBonds>
7

>  <Target>
Poly [ADP-ribose] polymerase-1

>  <fromRegid>
CHEMBL249813

>  <Similarity>
0.9

$$$$
Compound 634
Actelion Java MolfileCreator 2.0

  0  0  0  0  0  0              0 V3000
M  V30 BEGIN CTAB
M  V30 COUNTS 30 32 0 0 0
M  V30 BEGIN ATOM
M  V30 1 Cl 0.0 0.0 0.0 0
M  V30 2 C -0.0118 -1.4962 0.0 0
M  V30 3 C -1.33 -2.2325 0.0 0
M  V30 4 C 1.2825 -2.2325 0.0 0
M  V30 5 F -2.6481 -1.4725 0.0 0
M  V30 6 C -1.3418 -3.7287 0.0 0
M  V30 7 C 1.2706 -3.7287 0.0 0
M  V30 8 C -0.0475 -4.4768 0.0 0
M  V30 9 N 2.565 -4.4768 0.0 0
M  V30 10 C 3.8593 -3.7168 0.0 0
M  V30 11 C 2.5531 -5.9731 0.0 0
M  V30 12 S 3.8475 -2.1968 0.0 0
M  V30 13 N 5.1537 -4.465 0.0 0
M  V30 14 O 1.235 -6.7093 0.0 0
M  V30 15 C 3.8475 -6.7093 0.0 0
M  V30 16 C 5.1418 -1.4368 0.0 0 CFG=2
M  V30 17 C 5.1418 -5.9612 0.0 0
M  V30 18 C 3.8356 -8.2056 0.0 0
M  V30 19 C 6.4362 -2.1731 0.0 0
M  V30 20 C 5.13 0.0831 0.0 0
M  V30 21 C 6.4362 -6.6975 0.0 0
M  V30 22 C 5.13 -8.9418 0.0 0
M  V30 23 O 6.4243 -3.6693 0.0 0
M  V30 24 N 7.7306 -1.4131 0.0 0
M  V30 25 C 6.4243 0.8431 0.0 0
M  V30 26 C 3.8118 0.8431 0.0 0
M  V30 27 C 6.4243 -8.1937 0.0 0
M  V30 28 C 9.025 -2.1493 0.0 0
M  V30 29 O 9.0131 -3.6456 0.0 0
M  V30 30 N 10.3193 -1.3893 0.0 0
M  V30 END ATOM
M  V30 BEGIN BOND
M  V30 1 1 1 2
M  V30 2 2 2 3
M  V30 3 1 2 4
M  V30 4 1 3 5
M  V30 5 1 3 6
M  V30 6 2 4 7
M  V30 7 2 6 8
M  V30 8 1 7 9
M  V30 9 1 9 10
M  V30 10 1 9 11
M  V30 11 1 10 12
M  V30 12 2 10 13
M  V30 13 2 11 14
M  V30 14 1 11 15
M  V30 15 1 16 12 CFG=1
M  V30 16 1 13 17
M  V30 17 1 15 18
M  V30 18 1 16 19
M  V30 19 1 16 20
M  V30 20 1 17 21
M  V30 21 2 18 22
M  V30 22 2 19 23
M  V30 23 1 19 24
M  V30 24 1 20 25
M  V30 25 1 20 26
M  V30 26 2 21 27
M  V30 27 1 24 28
M  V30 28 2 28 29
M  V30 29 1 28 30
M  V30 30 1 7 8
M  V30 31 2 15 17
M  V30 32 1 22 27
M  V30 END BOND
M  V30 BEGIN COLLECTION
M  V30 MDLV30/STERAC1 ATOMS=(1 16)
M  V30 END COLLECTION
M  V30 END CTAB
M  END
>  <Structure No>
634

>  <Catalog ID>
Z15898160

>  <MW (desalted)>
448.898

>  <ClogP>
4.244

>  <HBD>
2

>  <TPSA>
104.860

>  <RotBonds>
5

>  <Target>
Serine/threonine-protein kinase Chk1

>  <fromRegid>
CHEMBL461051

>  <Similarity>
0.86

$$$$
Compound 635
Actelion Java MolfileCreator 2.0

  0  0  0  0  0  0              0 V3000
M  V30 BEGIN CTAB
M  V30 COUNTS 25 27 0 0 0
M  V30 BEGIN ATOM
M  V30 1 O 0.0 0.0 0.0 0
M  V30 2 C 1.3779 0.5535 0.0 0
M  V30 3 N 2.4614 -0.4475 0.0 0
M  V30 4 C 1.4721 2.0609 0.0 0 CFG=1
M  V30 5 C 3.9335 -0.2119 0.0 0
M  V30 6 N 0.1648 2.8147 0.0 0
M  V30 7 C 2.6969 2.9207 0.0 0
M  V30 8 C 4.6637 1.0952 0.0 0
M  V30 9 C -1.1423 2.0845 0.0 0
M  V30 10 C 4.1102 2.4967 0.0 0
M  V30 11 O -1.1541 0.6006 0.0 0
M  V30 12 N -2.4496 2.8382 0.0 0
M  V30 13 C -3.7568 2.108 0.0 0
M  V30 14 C -2.4614 4.3457 0.0 0
M  V30 15 C -5.0641 2.8618 0.0 0
M  V30 16 N -6.3714 2.1316 0.0 0
M  V30 17 N -5.0759 4.3692 0.0 0
M  V30 18 C -7.6786 2.8853 0.0 0
M  V30 19 C -6.3831 5.123 0.0 0
M  V30 20 C -7.6904 4.3928 0.0 0
M  V30 21 C -8.9859 2.1552 0.0 0
M  V30 22 O -6.3949 6.6304 0.0 0
M  V30 23 C -8.9976 5.1465 0.0 0
M  V30 24 C -10.2931 2.9089 0.0 0
M  V30 25 C -10.3049 4.4046 0.0 0
M  V30 END ATOM
M  V30 BEGIN BOND
M  V30 1 2 1 2
M  V30 2 1 2 3
M  V30 3 1 2 4
M  V30 4 1 3 5
M  V30 5 1 4 6 CFG=1
M  V30 6 1 4 7
M  V30 7 1 5 8
M  V30 8 1 6 9
M  V30 9 1 7 10
M  V30 10 2 9 11
M  V30 11 1 9 12
M  V30 12 1 12 13
M  V30 13 1 12 14
M  V30 14 1 13 15
M  V30 15 2 15 16
M  V30 16 1 15 17
M  V30 17 1 16 18
M  V30 18 1 17 19
M  V30 19 2 18 20
M  V30 20 1 18 21
M  V30 21 2 19 22
M  V30 22 1 20 23
M  V30 23 2 21 24
M  V30 24 2 23 25
M  V30 25 1 8 10
M  V30 26 1 19 20
M  V30 27 1 24 25
M  V30 END BOND
M  V30 BEGIN COLLECTION
M  V30 MDLV30/STERAC1 ATOMS=(1 4)
M  V30 END COLLECTION
M  V30 END CTAB
M  END
>  <Structure No>
635

>  <Catalog ID>
Z505749556

>  <MW (desalted)>
343.380

>  <ClogP>
-0.248

>  <HBD>
3

>  <TPSA>
102.900

>  <RotBonds>
3

>  <Target>
parp15

>  <fromRegid>


>  <Similarity>


$$$$
Compound 636
Actelion Java MolfileCreator 2.0

  0  0  0  0  0  0              0 V3000
M  V30 BEGIN CTAB
M  V30 COUNTS 32 35 0 0 0
M  V30 BEGIN ATOM
M  V30 1 Cl 0.0 0.0 0.0 0
M  V30 2 C 1.2873 -0.744 0.0 0
M  V30 3 C 1.2755 -2.2321 0.0 0
M  V30 4 C 2.5746 0.0118 0.0 0
M  V30 5 F -0.0354 -2.9761 0.0 0
M  V30 6 C 2.5628 -2.9761 0.0 0
M  V30 7 C 3.8619 -0.7322 0.0 0
M  V30 8 C 3.8501 -2.2085 0.0 0
M  V30 9 N 5.1492 0.0236 0.0 0
M  V30 10 C 5.1374 1.5353 0.0 0
M  V30 11 C 6.4366 -0.7204 0.0 0
M  V30 12 S 3.8265 2.2912 0.0 0
M  V30 13 N 6.4248 2.2912 0.0 0
M  V30 14 O 6.4248 -2.2085 0.0 0
M  V30 15 C 7.7239 0.0354 0.0 0
M  V30 16 C 3.8147 3.8029 0.0 0
M  V30 17 C 7.7121 1.5589 0.0 0
M  V30 18 C 9.0112 -0.7086 0.0 0
M  V30 19 C 2.5037 4.5587 0.0 0
M  V30 20 C 8.9994 2.3148 0.0 0
M  V30 21 C 10.2985 0.0472 0.0 0
M  V30 22 O 1.1928 3.8265 0.0 0
M  V30 23 N 2.4919 6.0705 0.0 0
M  V30 24 C 10.2867 1.5825 0.0 0
M  V30 25 C 3.7793 6.8263 0.0 0
M  V30 26 C 1.181 6.8263 0.0 0
M  V30 27 C 3.7674 8.338 0.0 0
M  V30 28 C 1.1692 8.338 0.0 0
M  V30 29 C 2.4565 9.1057 0.0 0
M  V30 30 C 2.4447 10.6174 0.0 0
M  V30 31 O 3.732 11.3733 0.0 0
M  V30 32 N 1.1337 11.3733 0.0 0
M  V30 END ATOM
M  V30 BEGIN BOND
M  V30 1 1 1 2
M  V30 2 2 2 3
M  V30 3 1 2 4
M  V30 4 1 3 5
M  V30 5 1 3 6
M  V30 6 2 4 7
M  V30 7 2 6 8
M  V30 8 1 7 9
M  V30 9 1 9 10
M  V30 10 1 9 11
M  V30 11 1 10 12
M  V30 12 2 10 13
M  V30 13 2 11 14
M  V30 14 1 11 15
M  V30 15 1 12 16
M  V30 16 1 13 17
M  V30 17 1 15 18
M  V30 18 1 16 19
M  V30 19 1 17 20
M  V30 20 2 18 21
M  V30 21 2 19 22
M  V30 22 1 19 23
M  V30 23 2 20 24
M  V30 24 1 23 25
M  V30 25 1 23 26
M  V30 26 1 25 27
M  V30 27 1 26 28
M  V30 28 1 27 29
M  V30 29 1 29 30
M  V30 30 2 30 31
M  V30 31 1 30 32
M  V30 32 1 7 8
M  V30 33 2 15 17
M  V30 34 1 21 24
M  V30 35 1 28 29
M  V30 END BOND
M  V30 END CTAB
M  END
>  <Structure No>
636

>  <Catalog ID>
Z15898819

>  <MW (desalted)>
474.936

>  <ClogP>
2.126

>  <HBD>
1

>  <TPSA>
96.070

>  <RotBonds>
5

>  <Target>
Serine/threonine-protein kinase Chk1

>  <fromRegid>
CHEMBL461264

>  <Similarity>
0.86

$$$$
Compound 637
Actelion Java MolfileCreator 2.0

  0  0  0  0  0  0              0 V3000
M  V30 BEGIN CTAB
M  V30 COUNTS 28 30 0 0 0
M  V30 BEGIN ATOM
M  V30 1 Cl 0.0 0.0 0.0 0
M  V30 2 C -0.0118 -1.497 0.0 0
M  V30 3 C -1.3306 -2.2336 0.0 0
M  V30 4 C 1.2831 -2.2336 0.0 0
M  V30 5 F -2.6494 -1.4732 0.0 0
M  V30 6 C -1.3425 -3.7306 0.0 0
M  V30 7 C 1.2712 -3.7306 0.0 0
M  V30 8 C -0.0475 -4.4791 0.0 0
M  V30 9 N 2.5662 -4.4791 0.0 0
M  V30 10 C 3.8613 -3.7187 0.0 0
M  V30 11 C 2.5544 -5.9761 0.0 0
M  V30 12 S 3.8494 -2.1979 0.0 0
M  V30 13 N 5.1563 -4.4672 0.0 0
M  V30 14 O 1.2356 -6.7127 0.0 0
M  V30 15 C 3.8494 -6.7127 0.0 0
M  V30 16 C 5.1444 -1.4375 0.0 0 CFG=2
M  V30 17 C 5.1444 -5.9642 0.0 0
M  V30 18 C 3.8375 -8.2097 0.0 0
M  V30 19 C 6.4394 -2.1742 0.0 0
M  V30 20 C 5.1325 0.0831 0.0 0
M  V30 21 C 6.4394 -6.7008 0.0 0
M  V30 22 C 5.1325 -8.9463 0.0 0
M  V30 23 O 6.4276 -3.6712 0.0 0
M  V30 24 N 7.7345 -1.4138 0.0 0
M  V30 25 C 6.4276 -8.1978 0.0 0
M  V30 26 C 9.0295 -2.1504 0.0 0
M  V30 27 O 9.0176 -3.6474 0.0 0
M  V30 28 N 10.3245 -1.39 0.0 0
M  V30 END ATOM
M  V30 BEGIN BOND
M  V30 1 1 1 2
M  V30 2 2 2 3
M  V30 3 1 2 4
M  V30 4 1 3 5
M  V30 5 1 3 6
M  V30 6 2 4 7
M  V30 7 2 6 8
M  V30 8 1 7 9
M  V30 9 1 9 10
M  V30 10 1 9 11
M  V30 11 1 10 12
M  V30 12 2 10 13
M  V30 13 2 11 14
M  V30 14 1 11 15
M  V30 15 1 16 12 CFG=1
M  V30 16 1 13 17
M  V30 17 1 15 18
M  V30 18 1 16 19
M  V30 19 1 16 20
M  V30 20 1 17 21
M  V30 21 2 18 22
M  V30 22 2 19 23
M  V30 23 1 19 24
M  V30 24 2 21 25
M  V30 25 1 24 26
M  V30 26 2 26 27
M  V30 27 1 26 28
M  V30 28 1 7 8
M  V30 29 2 15 17
M  V30 30 1 22 25
M  V30 END BOND
M  V30 BEGIN COLLECTION
M  V30 MDLV30/STERAC1 ATOMS=(1 16)
M  V30 END COLLECTION
M  V30 END CTAB
M  END
>  <Structure No>
637

>  <Catalog ID>
Z15898104

>  <MW (desalted)>
420.845

>  <ClogP>
3.316

>  <HBD>
2

>  <TPSA>
104.860

>  <RotBonds>
4

>  <Target>
CHK2

>  <fromRegid>


>  <Similarity>


$$$$
Compound 638
Actelion Java MolfileCreator 2.0

  0  0  0  0  0  0              0 V3000
M  V30 BEGIN CTAB
M  V30 COUNTS 25 27 0 0 0
M  V30 BEGIN ATOM
M  V30 1 O 0.0 0.0 0.0 0
M  V30 2 C -0.0118 -1.497 0.0 0
M  V30 3 N 1.2832 -2.2337 0.0 0
M  V30 4 C -1.3307 -2.2337 0.0 0
M  V30 5 C 1.2713 -3.7308 0.0 0
M  V30 6 O -1.3426 -3.7308 0.0 0
M  V30 7 C -0.0475 -4.4675 0.0 0
M  V30 8 C 2.5664 -4.4675 0.0 0
M  V30 9 C -0.0594 -5.9646 0.0 0
M  V30 10 C 2.5545 -5.9646 0.0 0
M  V30 11 C 1.2356 -6.7131 0.0 0
M  V30 12 C 3.8496 -6.7131 0.0 0 CFG=1
M  V30 13 N 5.1447 -5.9527 0.0 0
M  V30 14 C 3.8377 -8.2102 0.0 0
M  V30 15 C 6.4398 -6.7012 0.0 0
M  V30 16 O 6.428 -8.1983 0.0 0
M  V30 17 N 7.735 -5.9408 0.0 0
M  V30 18 C 9.0301 -6.6894 0.0 0
M  V30 19 C 10.3252 -5.9289 0.0 0
M  V30 20 C 11.6203 -6.6775 0.0 0
M  V30 21 N 12.9154 -5.917 0.0 0
M  V30 22 N 14.2818 -6.523 0.0 0
M  V30 23 C 13.058 -4.4081 0.0 0
M  V30 24 C 15.2798 -5.3943 0.0 0
M  V30 25 C 14.5194 -4.0873 0.0 0
M  V30 END ATOM
M  V30 BEGIN BOND
M  V30 1 2 1 2
M  V30 2 1 2 3
M  V30 3 1 2 4
M  V30 4 1 3 5
M  V30 5 1 4 6
M  V30 6 2 5 7
M  V30 7 1 5 8
M  V30 8 1 7 9
M  V30 9 2 8 10
M  V30 10 2 9 11
M  V30 11 1 10 12
M  V30 12 1 12 13 CFG=1
M  V30 13 1 12 14
M  V30 14 1 13 15
M  V30 15 2 15 16
M  V30 16 1 15 17
M  V30 17 1 17 18
M  V30 18 1 18 19
M  V30 19 1 19 20
M  V30 20 1 20 21
M  V30 21 1 21 22
M  V30 22 1 21 23
M  V30 23 2 22 24
M  V30 24 2 23 25
M  V30 25 1 6 7
M  V30 26 1 10 11
M  V30 27 1 24 25
M  V30 END BOND
M  V30 BEGIN COLLECTION
M  V30 MDLV30/STERAC1 ATOMS=(1 12)
M  V30 END COLLECTION
M  V30 END CTAB
M  END
>  <Structure No>
638

>  <Catalog ID>
Z436607002

>  <MW (desalted)>
343.380

>  <ClogP>
0.901

>  <HBD>
3

>  <TPSA>
97.280

>  <RotBonds>
6

>  <Target>
Tankyrase1

>  <fromRegid>


>  <Similarity>


$$$$
Compound 639
Actelion Java MolfileCreator 2.0

  0  0  0  0  0  0              0 V3000
M  V30 BEGIN CTAB
M  V30 COUNTS 26 28 0 0 0
M  V30 BEGIN ATOM
M  V30 1 O 0.0 0.0 0.0 0
M  V30 2 C -0.0118 -1.4961 0.0 0
M  V30 3 N 1.2824 -2.2442 0.0 0
M  V30 4 C -1.3299 -2.2442 0.0 0
M  V30 5 C 1.2705 -3.7404 0.0 0
M  V30 6 C -1.3418 -3.7404 0.0 0
M  V30 7 C -2.6479 -1.4842 0.0 0
M  V30 8 N -0.0474 -4.4766 0.0 0
M  V30 9 C 2.5648 -4.4766 0.0 0
M  V30 10 C -2.6598 -4.4766 0.0 0
M  V30 11 C -3.966 -2.2323 0.0 0
M  V30 12 C 3.8591 -3.7166 0.0 0
M  V30 13 C -3.9779 -3.7166 0.0 0
M  V30 14 C 5.1534 -4.4528 0.0 0
M  V30 15 O 5.1416 -5.949 0.0 0
M  V30 16 O 6.4477 -3.6929 0.0 0
M  V30 17 C 7.7421 -4.4291 0.0 0
M  V30 18 C 9.0364 -3.6691 0.0 0
M  V30 19 O 9.0245 -2.1492 0.0 0
M  V30 20 N 10.3307 -4.4054 0.0 0
M  V30 21 C 11.625 -3.6454 0.0 0
M  V30 22 C 12.9193 -4.3816 0.0 0 CFG=2
M  V30 23 O 13.0618 -5.8659 0.0 0
M  V30 24 C 14.2849 -3.7523 0.0 0
M  V30 25 C 14.5223 -6.1628 0.0 0
M  V30 26 C 15.2823 -4.8566 0.0 0
M  V30 END ATOM
M  V30 BEGIN BOND
M  V30 1 2 1 2
M  V30 2 1 2 3
M  V30 3 1 2 4
M  V30 4 1 3 5
M  V30 5 2 4 6
M  V30 6 1 4 7
M  V30 7 2 5 8
M  V30 8 1 5 9
M  V30 9 1 6 10
M  V30 10 2 7 11
M  V30 11 1 9 12
M  V30 12 2 10 13
M  V30 13 1 12 14
M  V30 14 2 14 15
M  V30 15 1 14 16
M  V30 16 1 16 17
M  V30 17 1 17 18
M  V30 18 2 18 19
M  V30 19 1 18 20
M  V30 20 1 20 21
M  V30 21 1 22 21 CFG=1
M  V30 22 1 22 23
M  V30 23 1 22 24
M  V30 24 1 23 25
M  V30 25 1 24 26
M  V30 26 1 6 8
M  V30 27 1 11 13
M  V30 28 1 25 26
M  V30 END BOND
M  V30 BEGIN COLLECTION
M  V30 MDLV30/STERAC1 ATOMS=(1 22)
M  V30 END COLLECTION
M  V30 END CTAB
M  END
>  <Structure No>
639

>  <Catalog ID>
Z15966375

>  <MW (desalted)>
359.376

>  <ClogP>
0.320

>  <HBD>
2

>  <TPSA>
106.090

>  <RotBonds>
8

>  <Target>
Poly [ADP-ribose] polymerase-1

>  <fromRegid>
CHEMBL3105401

>  <Similarity>
0.86

$$$$
Compound 640
Actelion Java MolfileCreator 2.0

  0  0  0  0  0  0              0 V3000
M  V30 BEGIN CTAB
M  V30 COUNTS 25 27 0 0 0
M  V30 BEGIN ATOM
M  V30 1 O 0.0 0.0 0.0 0
M  V30 2 C -0.0118 -1.4959 0.0 0
M  V30 3 N 1.2822 -2.2439 0.0 0
M  V30 4 C -1.3297 -2.2439 0.0 0
M  V30 5 C 1.2703 -3.7398 0.0 0
M  V30 6 C -1.3415 -3.7398 0.0 0
M  V30 7 C -2.6475 -1.484 0.0 0
M  V30 8 N -0.0474 -4.4759 0.0 0
M  V30 9 C 2.5644 -4.4759 0.0 0
M  V30 10 C -2.6594 -4.4759 0.0 0
M  V30 11 C -3.9654 -2.232 0.0 0
M  V30 12 C 3.8585 -3.7161 0.0 0
M  V30 13 C -3.9773 -3.7161 0.0 0
M  V30 14 C 5.1526 -4.4522 0.0 0
M  V30 15 O 5.1408 -5.9481 0.0 0
M  V30 16 O 6.4468 -3.6923 0.0 0
M  V30 17 C 7.7409 -4.4284 0.0 0 CFG=2
M  V30 18 C 9.035 -3.6686 0.0 0
M  V30 19 C 7.729 -5.9244 0.0 0
M  V30 20 O 9.0231 -2.1489 0.0 0
M  V30 21 N 10.3291 -4.4047 0.0 0
M  V30 22 C 11.6944 -3.7754 0.0 0
M  V30 23 C 10.4716 -5.8887 0.0 0
M  V30 24 C 12.6917 -4.8796 0.0 0
M  V30 25 C 11.9319 -6.1856 0.0 0
M  V30 END ATOM
M  V30 BEGIN BOND
M  V30 1 2 1 2
M  V30 2 1 2 3
M  V30 3 1 2 4
M  V30 4 1 3 5
M  V30 5 2 4 6
M  V30 6 1 4 7
M  V30 7 2 5 8
M  V30 8 1 5 9
M  V30 9 1 6 10
M  V30 10 2 7 11
M  V30 11 1 9 12
M  V30 12 2 10 13
M  V30 13 1 12 14
M  V30 14 2 14 15
M  V30 15 1 14 16
M  V30 16 1 17 16 CFG=3
M  V30 17 1 17 18
M  V30 18 1 17 19
M  V30 19 2 18 20
M  V30 20 1 18 21
M  V30 21 1 21 22
M  V30 22 1 21 23
M  V30 23 1 22 24
M  V30 24 1 23 25
M  V30 25 1 6 8
M  V30 26 1 11 13
M  V30 27 1 24 25
M  V30 END BOND
M  V30 BEGIN COLLECTION
M  V30 MDLV30/STERAC1 ATOMS=(1 17)
M  V30 END COLLECTION
M  V30 END CTAB
M  END
>  <Structure No>
640

>  <Catalog ID>
Z15965841

>  <MW (desalted)>
343.377

>  <ClogP>
0.566

>  <HBD>
1

>  <TPSA>
88.070

>  <RotBonds>
6

>  <Target>
Poly [ADP-ribose] polymerase-1

>  <fromRegid>
CHEMBL3105401

>  <Similarity>
0.86

$$$$
Compound 641
Actelion Java MolfileCreator 2.0

  0  0  0  0  0  0              0 V3000
M  V30 BEGIN CTAB
M  V30 COUNTS 34 38 0 0 0
M  V30 BEGIN ATOM
M  V30 1 S 0.0 0.0 0.0 0
M  V30 2 C 1.29 -0.7337 0.0 0
M  V30 3 C -1.3136 -0.7337 0.0 0
M  V30 4 N 2.58 0.0236 0.0 0
M  V30 5 N 1.2781 -2.2249 0.0 0
M  V30 6 C -2.6273 0.0236 0.0 0
M  V30 7 C 3.87 -0.7101 0.0 0
M  V30 8 C 2.5682 -2.9705 0.0 0
M  V30 9 C -0.0355 -2.9705 0.0 0
M  V30 10 O -2.6392 1.5385 0.0 0
M  V30 11 N -3.941 -0.7101 0.0 0
M  V30 12 C 3.8582 -2.2013 0.0 0
M  V30 13 C 5.16 0.0473 0.0 0
M  V30 14 O 2.5563 -4.4618 0.0 0
M  V30 15 C -0.0473 -4.4618 0.0 0
M  V30 16 C -5.2547 0.0473 0.0 0
M  V30 17 C -3.9529 -2.2013 0.0 0
M  V30 18 C 5.1482 -2.9469 0.0 0
M  V30 19 C 6.45 -0.6864 0.0 0
M  V30 20 C -1.361 -5.2074 0.0 0
M  V30 21 C 1.2426 -5.2074 0.0 0
M  V30 22 C -6.5684 -0.6864 0.0 0
M  V30 23 C -5.2665 1.5622 0.0 0
M  V30 24 C -5.2665 -2.9469 0.0 0
M  V30 25 C 6.4382 -2.1894 0.0 0
M  V30 26 C -1.3728 -6.6986 0.0 0
M  V30 27 C 1.2308 -6.6986 0.0 0
M  V30 28 N -6.5802 -2.1776 0.0 0
M  V30 29 C -7.8821 0.071 0.0 0
M  V30 30 C -6.5802 2.3196 0.0 0
M  V30 31 O -5.2784 -4.4381 0.0 0
M  V30 32 C -0.0828 -7.4324 0.0 0
M  V30 33 C -7.8939 1.5858 0.0 0
M  V30 34 C -0.0946 -8.9236 0.0 0
M  V30 END ATOM
M  V30 BEGIN BOND
M  V30 1 1 1 2
M  V30 2 1 1 3
M  V30 3 2 2 4
M  V30 4 1 2 5
M  V30 5 1 3 6
M  V30 6 1 4 7
M  V30 7 1 5 8
M  V30 8 1 5 9
M  V30 9 2 6 10
M  V30 10 1 6 11
M  V30 11 2 7 12
M  V30 12 1 7 13
M  V30 13 2 8 14
M  V30 14 1 9 15
M  V30 15 1 11 16
M  V30 16 1 11 17
M  V30 17 1 12 18
M  V30 18 2 13 19
M  V30 19 2 15 20
M  V30 20 1 15 21
M  V30 21 2 16 22
M  V30 22 1 16 23
M  V30 23 1 17 24
M  V30 24 2 18 25
M  V30 25 1 20 26
M  V30 26 2 21 27
M  V30 27 1 22 28
M  V30 28 1 22 29
M  V30 29 2 23 30
M  V30 30 2 24 31
M  V30 31 2 26 32
M  V30 32 2 29 33
M  V30 33 1 32 34
M  V30 34 1 8 12
M  V30 35 1 19 25
M  V30 36 1 24 28
M  V30 37 1 27 32
M  V30 38 1 30 33
M  V30 END BOND
M  V30 END CTAB
M  END
>  <Structure No>
641

>  <Catalog ID>
Z15971903

>  <MW (desalted)>
470.543

>  <ClogP>
4.002

>  <HBD>
1

>  <TPSA>
82.080

>  <RotBonds>
5

>  <Target>
Poly [ADP-ribose] polymerase-1

>  <fromRegid>
CHEMBL3105415

>  <Similarity>
0.94

$$$$
Compound 642
Actelion Java MolfileCreator 2.0

  0  0  0  0  0  0              0 V3000
M  V30 BEGIN CTAB
M  V30 COUNTS 27 29 0 0 0
M  V30 BEGIN ATOM
M  V30 1 Cl 0.0 0.0 0.0 0
M  V30 2 C 1.2915 0.7583 0.0 0
M  V30 3 C 2.5831 0.0236 0.0 0
M  V30 4 C 1.2797 2.275 0.0 0
M  V30 5 C 3.8747 0.782 0.0 0
M  V30 6 C 2.5713 3.0452 0.0 0
M  V30 7 C 3.8628 2.2987 0.0 0
M  V30 8 C 5.1544 3.0689 0.0 0
M  V30 9 N 6.446 2.3224 0.0 0
M  V30 10 C 7.7376 3.0926 0.0 0
M  V30 11 C 6.4342 0.8294 0.0 0
M  V30 12 O 7.7257 4.6094 0.0 0
M  V30 13 C 9.0292 2.3461 0.0 0
M  V30 14 N 10.3208 3.1163 0.0 0
M  V30 15 C 11.6123 2.3698 0.0 0
M  V30 16 C 10.3089 4.6331 0.0 0
M  V30 17 O 11.6005 0.8768 0.0 0
M  V30 18 C 12.9039 3.14 0.0 0
M  V30 19 N 11.6005 5.3914 0.0 0
M  V30 20 C 12.8921 4.6568 0.0 0
M  V30 21 C 14.1955 2.3935 0.0 0
M  V30 22 C 14.1837 5.4151 0.0 0
M  V30 23 C 15.4871 3.1637 0.0 0
M  V30 24 C 15.4752 4.6686 0.0 0
M  V30 25 N 16.7787 2.4172 0.0 0 CHG=1
M  V30 26 O 18.0703 3.1874 0.0 0
M  V30 27 O 16.7668 0.9242 0.0 0 CHG=-1
M  V30 END ATOM
M  V30 BEGIN BOND
M  V30 1 1 1 2
M  V30 2 2 2 3
M  V30 3 1 2 4
M  V30 4 1 3 5
M  V30 5 2 4 6
M  V30 6 2 5 7
M  V30 7 1 7 8
M  V30 8 1 8 9
M  V30 9 1 9 10
M  V30 10 1 9 11
M  V30 11 2 10 12
M  V30 12 1 10 13
M  V30 13 1 13 14
M  V30 14 1 14 15
M  V30 15 1 14 16
M  V30 16 2 15 17
M  V30 17 1 15 18
M  V30 18 2 16 19
M  V30 19 2 18 20
M  V30 20 1 18 21
M  V30 21 1 20 22
M  V30 22 2 21 23
M  V30 23 2 22 24
M  V30 24 1 23 25
M  V30 25 2 25 26
M  V30 26 1 25 27
M  V30 27 1 6 7
M  V30 28 1 19 20
M  V30 29 1 23 24
M  V30 END BOND
M  V30 END CTAB
M  END
>  <Structure No>
642

>  <Catalog ID>
Z15989559

>  <MW (desalted)>
386.789

>  <ClogP>
2.596

>  <HBD>
0

>  <TPSA>
96.120

>  <RotBonds>
5

>  <Target>
parp14

>  <fromRegid>


>  <Similarity>


$$$$
Compound 643
Actelion Java MolfileCreator 2.0

  0  0  0  0  0  0              0 V3000
M  V30 BEGIN CTAB
M  V30 COUNTS 30 32 0 0 0
M  V30 BEGIN ATOM
M  V30 1 F 0.0 0.0 0.0 0
M  V30 2 C 1.293 0.771 0.0 0
M  V30 3 C 2.586 0.0237 0.0 0
M  V30 4 C 1.2811 2.2894 0.0 0
M  V30 5 C 3.879 0.7947 0.0 0
M  V30 6 C 2.5741 3.0486 0.0 0
M  V30 7 C 3.8671 2.3131 0.0 0
M  V30 8 N 5.1601 3.0723 0.0 0
M  V30 9 C 6.4532 2.3369 0.0 0
M  V30 10 O 6.4413 0.8422 0.0 0
M  V30 11 C 7.7462 3.0961 0.0 0
M  V30 12 N 9.0392 2.3606 0.0 0
M  V30 13 C 10.3322 3.1198 0.0 0
M  V30 14 C 9.0273 0.8659 0.0 0
M  V30 15 O 10.3203 4.6382 0.0 0
M  V30 16 C 11.6252 2.3843 0.0 0
M  V30 17 N 12.9182 3.1435 0.0 0
M  V30 18 C 14.2112 2.408 0.0 0
M  V30 19 C 12.9064 4.6619 0.0 0
M  V30 20 O 14.1994 0.9134 0.0 0
M  V30 21 C 15.5042 3.1672 0.0 0
M  V30 22 N 14.1994 5.433 0.0 0
M  V30 23 C 15.4924 4.6856 0.0 0
M  V30 24 C 16.7973 2.4318 0.0 0
M  V30 25 C 16.7854 5.4567 0.0 0
M  V30 26 C 18.0903 3.191 0.0 0
M  V30 27 C 18.0784 4.7094 0.0 0
M  V30 28 N 19.3833 2.4555 0.0 0 CHG=1
M  V30 29 O 20.6763 3.2147 0.0 0
M  V30 30 O 19.3714 0.9608 0.0 0 CHG=-1
M  V30 END ATOM
M  V30 BEGIN BOND
M  V30 1 1 1 2
M  V30 2 2 2 3
M  V30 3 1 2 4
M  V30 4 1 3 5
M  V30 5 2 4 6
M  V30 6 2 5 7
M  V30 7 1 7 8
M  V30 8 1 8 9
M  V30 9 2 9 10
M  V30 10 1 9 11
M  V30 11 1 11 12
M  V30 12 1 12 13
M  V30 13 1 12 14
M  V30 14 2 13 15
M  V30 15 1 13 16
M  V30 16 1 16 17
M  V30 17 1 17 18
M  V30 18 1 17 19
M  V30 19 2 18 20
M  V30 20 1 18 21
M  V30 21 2 19 22
M  V30 22 2 21 23
M  V30 23 1 21 24
M  V30 24 1 23 25
M  V30 25 2 24 26
M  V30 26 2 25 27
M  V30 27 1 26 28
M  V30 28 2 28 29
M  V30 29 1 28 30
M  V30 30 1 6 7
M  V30 31 1 22 23
M  V30 32 1 26 27
M  V30 END BOND
M  V30 END CTAB
M  END
>  <Structure No>
643

>  <Catalog ID>
Z15989423

>  <MW (desalted)>
413.359

>  <ClogP>
2.022

>  <HBD>
1

>  <TPSA>
125.220

>  <RotBonds>
6

>  <Target>
parp14

>  <fromRegid>


>  <Similarity>


$$$$
Compound 644
Actelion Java MolfileCreator 2.0

  0  0  0  0  0  0              0 V3000
M  V30 BEGIN CTAB
M  V30 COUNTS 25 27 0 0 0
M  V30 BEGIN ATOM
M  V30 1 O 0.0 0.0 0.0 0
M  V30 2 N -1.3021 -0.739 0.0 0 CHG=1
M  V30 3 O -1.3138 -2.2171 0.0 0 CHG=-1
M  V30 4 C -2.6042 0.0234 0.0 0
M  V30 5 C -3.9064 -0.7155 0.0 0
M  V30 6 C -2.616 1.525 0.0 0
M  V30 7 C -5.2085 0.0469 0.0 0
M  V30 8 C -3.9181 2.2875 0.0 0
M  V30 9 C -6.5106 -0.6921 0.0 0
M  V30 10 C -5.2202 1.5484 0.0 0
M  V30 11 O -6.5224 -2.1702 0.0 0
M  V30 12 N -7.8128 0.0703 0.0 0
M  V30 13 N -6.5224 2.3109 0.0 0
M  V30 14 C -7.8245 1.5719 0.0 0
M  V30 15 C -9.1149 -0.6686 0.0 0
M  V30 16 C -10.417 0.0938 0.0 0
M  V30 17 O -10.4288 1.5954 0.0 0
M  V30 18 N -11.7192 -0.6452 0.0 0
M  V30 19 C -13.0213 0.1173 0.0 0
M  V30 20 C -11.7309 -2.1233 0.0 0
M  V30 21 C -14.3234 -0.6217 0.0 0
M  V30 22 C -13.033 1.6188 0.0 0
M  V30 23 C -15.6256 0.1407 0.0 0
M  V30 24 C -14.3352 2.3813 0.0 0
M  V30 25 C -15.6373 1.6423 0.0 0
M  V30 END ATOM
M  V30 BEGIN BOND
M  V30 1 2 1 2
M  V30 2 1 2 3
M  V30 3 1 2 4
M  V30 4 2 4 5
M  V30 5 1 4 6
M  V30 6 1 5 7
M  V30 7 2 6 8
M  V30 8 1 7 9
M  V30 9 2 7 10
M  V30 10 2 9 11
M  V30 11 1 9 12
M  V30 12 1 10 13
M  V30 13 1 12 14
M  V30 14 1 12 15
M  V30 15 1 15 16
M  V30 16 2 16 17
M  V30 17 1 16 18
M  V30 18 1 18 19
M  V30 19 1 18 20
M  V30 20 2 19 21
M  V30 21 1 19 22
M  V30 22 1 21 23
M  V30 23 2 22 24
M  V30 24 2 23 25
M  V30 25 1 8 10
M  V30 26 2 13 14
M  V30 27 1 24 25
M  V30 END BOND
M  V30 END CTAB
M  END
>  <Structure No>
644

>  <Catalog ID>
Z15989442

>  <MW (desalted)>
338.317

>  <ClogP>
1.810

>  <HBD>
0

>  <TPSA>
96.120

>  <RotBonds>
4

>  <Target>
parp14

>  <fromRegid>


>  <Similarity>


$$$$
Compound 645
Actelion Java MolfileCreator 2.0

  0  0  0  0  0  0              0 V3000
M  V30 BEGIN CTAB
M  V30 COUNTS 24 24 0 0 0
M  V30 BEGIN ATOM
M  V30 1 Cl 0.0 0.0 0.0 0
M  V30 2 C -1.3042 0.7637 0.0 0
M  V30 3 C -1.3159 2.2677 0.0 0
M  V30 4 C -2.6084 0.0234 0.0 0
M  V30 5 C -0.0352 3.0197 0.0 0
M  V30 6 C -2.6202 3.0197 0.0 0
M  V30 7 C -3.9127 0.7872 0.0 0
M  V30 8 O 1.2454 2.2912 0.0 0
M  V30 9 N -0.0469 4.5237 0.0 0
M  V30 10 C -3.9244 2.2912 0.0 0
M  V30 11 N -5.2169 0.0469 0.0 0
M  V30 12 C -6.5212 0.8107 0.0 0
M  V30 13 O -6.5329 2.3147 0.0 0
M  V30 14 N -7.8254 0.0704 0.0 0
M  V30 15 C -9.1297 0.8342 0.0 0
M  V30 16 C -10.4339 0.0939 0.0 0
M  V30 17 C -11.7382 0.8577 0.0 0
M  V30 18 N -13.0424 0.1174 0.0 0
M  V30 19 C -14.3467 0.8812 0.0 0
M  V30 20 C -13.0542 -1.3629 0.0 0
M  V30 21 C -15.6509 0.1409 0.0 0
M  V30 22 F -16.9552 -0.5874 0.0 0
M  V30 23 F -16.4029 1.4452 0.0 0
M  V30 24 F -14.9107 -1.1397 0.0 0
M  V30 END ATOM
M  V30 BEGIN BOND
M  V30 1 1 1 2
M  V30 2 2 2 3
M  V30 3 1 2 4
M  V30 4 1 3 5
M  V30 5 1 3 6
M  V30 6 2 4 7
M  V30 7 2 5 8
M  V30 8 1 5 9
M  V30 9 2 6 10
M  V30 10 1 7 11
M  V30 11 1 11 12
M  V30 12 2 12 13
M  V30 13 1 12 14
M  V30 14 1 14 15
M  V30 15 1 15 16
M  V30 16 1 16 17
M  V30 17 1 17 18
M  V30 18 1 18 19
M  V30 19 1 18 20
M  V30 20 1 19 21
M  V30 21 1 21 22
M  V30 22 1 21 23
M  V30 23 1 21 24
M  V30 24 1 7 10
M  V30 END BOND
M  V30 END CTAB
M  END
>  <Structure No>
645

>  <Catalog ID>
Z416208888

>  <MW (desalted)>
366.767

>  <ClogP>
1.433

>  <HBD>
3

>  <TPSA>
87.460

>  <RotBonds>
8

>  <Target>
parp14

>  <fromRegid>


>  <Similarity>


$$$$
Compound 646
Actelion Java MolfileCreator 2.0

  0  0  0  0  0  0              0 V3000
M  V30 BEGIN CTAB
M  V30 COUNTS 19 21 0 0 0
M  V30 BEGIN ATOM
M  V30 1 O 0.0 0.0 0.0 0
M  V30 2 C -0.0118 -1.4921 0.0 0
M  V30 3 N 1.2789 -2.2263 0.0 0
M  V30 4 C -1.3263 -2.2263 0.0 0
M  V30 5 C 1.2671 -3.7184 0.0 0
M  V30 6 C 2.5697 -1.4684 0.0 0
M  V30 7 C -1.3381 -3.7184 0.0 0
M  V30 8 C -2.6408 -1.4684 0.0 0
M  V30 9 C -0.0473 -4.4644 0.0 0
M  V30 10 C -2.6526 -4.4644 0.0 0
M  V30 11 C -3.9552 -2.2026 0.0 0
M  V30 12 N -2.6644 -5.9566 0.0 0
M  V30 13 C -3.9671 -3.7065 0.0 0
M  V30 14 C -3.9789 -6.7026 0.0 0
M  V30 15 O -5.2934 -5.9329 0.0 0
M  V30 16 C -3.9908 -8.1947 0.0 0
M  V30 17 C -3.2565 -9.4855 0.0 0
M  V30 18 C -4.7487 -9.4855 0.0 0
M  V30 19 C -1.9657 -10.2197 0.0 0
M  V30 END ATOM
M  V30 BEGIN BOND
M  V30 1 2 1 2
M  V30 2 1 2 3
M  V30 3 1 2 4
M  V30 4 1 3 5
M  V30 5 1 3 6
M  V30 6 2 4 7
M  V30 7 1 4 8
M  V30 8 2 5 9
M  V30 9 1 7 10
M  V30 10 2 8 11
M  V30 11 1 10 12
M  V30 12 2 10 13
M  V30 13 1 12 14
M  V30 14 2 14 15
M  V30 15 1 14 16
M  V30 16 1 16 17
M  V30 17 1 16 18
M  V30 18 1 17 19
M  V30 19 1 7 9
M  V30 20 1 11 13
M  V30 21 1 17 18
M  V30 END BOND
M  V30 END CTAB
M  END
>  <Structure No>
646

>  <Catalog ID>
Z2001222092

>  <MW (desalted)>
256.300

>  <ClogP>
1.765

>  <HBD>
1

>  <TPSA>
49.410

>  <RotBonds>
2

>  <Target>
Poly [ADP-ribose] polymerase-1

>  <fromRegid>
CHEMBL1767059

>  <Similarity>
0.87

$$$$
Compound 647
Actelion Java MolfileCreator 2.0

  0  0  0  0  0  0              0 V3000
M  V30 BEGIN CTAB
M  V30 COUNTS 24 26 0 0 0
M  V30 BEGIN ATOM
M  V30 1 S 0.0 0.0 0.0 0
M  V30 2 C 1.2884 -0.7328 0.0 0
M  V30 3 C -1.312 -0.7328 0.0 0
M  V30 4 N 2.5768 0.0236 0.0 0
M  V30 5 N 1.2766 -2.2222 0.0 0
M  V30 6 C -2.6241 0.0236 0.0 0
M  V30 7 C 3.8653 -0.7092 0.0 0
M  V30 8 C 2.565 -2.9669 0.0 0
M  V30 9 O -2.6359 1.5366 0.0 0
M  V30 10 N -3.9362 -0.7092 0.0 0
M  V30 11 C 3.8534 -2.1986 0.0 0
M  V30 12 C 5.1537 0.0472 0.0 0
M  V30 13 O 2.5532 -4.4563 0.0 0
M  V30 14 C -5.2483 0.0472 0.0 0
M  V30 15 C 5.1419 -2.9433 0.0 0
M  V30 16 C 6.4421 -0.6855 0.0 0
M  V30 17 C -6.5603 -0.6855 0.0 0
M  V30 18 C -5.2601 1.5603 0.0 0
M  V30 19 C 6.4303 -2.1749 0.0 0
M  V30 20 F -6.5722 -2.1749 0.0 0
M  V30 21 C -7.8724 0.0709 0.0 0
M  V30 22 C -6.5722 2.3286 0.0 0
M  V30 23 C -7.8842 1.5839 0.0 0
M  V30 24 C -9.1963 2.3522 0.0 0
M  V30 END ATOM
M  V30 BEGIN BOND
M  V30 1 1 1 2
M  V30 2 1 1 3
M  V30 3 2 2 4
M  V30 4 1 2 5
M  V30 5 1 3 6
M  V30 6 1 4 7
M  V30 7 1 5 8
M  V30 8 2 6 9
M  V30 9 1 6 10
M  V30 10 2 7 11
M  V30 11 1 7 12
M  V30 12 2 8 13
M  V30 13 1 10 14
M  V30 14 1 11 15
M  V30 15 2 12 16
M  V30 16 2 14 17
M  V30 17 1 14 18
M  V30 18 2 15 19
M  V30 19 1 17 20
M  V30 20 1 17 21
M  V30 21 2 18 22
M  V30 22 2 21 23
M  V30 23 1 23 24
M  V30 24 1 8 11
M  V30 25 1 16 19
M  V30 26 1 22 23
M  V30 END BOND
M  V30 END CTAB
M  END
>  <Structure No>
647

>  <Catalog ID>
Z16078672

>  <MW (desalted)>
343.375

>  <ClogP>
2.317

>  <HBD>
2

>  <TPSA>
70.560

>  <RotBonds>
4

>  <Target>
parp3

>  <fromRegid>


>  <Similarity>


$$$$
Compound 648
Actelion Java MolfileCreator 2.0

  0  0  0  0  0  0              0 V3000
M  V30 BEGIN CTAB
M  V30 COUNTS 29 32 0 0 0
M  V30 BEGIN ATOM
M  V30 1 S 0.0 0.0 0.0 0
M  V30 2 C 1.2881 -0.7327 0.0 0
M  V30 3 C -0.0118 1.5127 0.0 0
M  V30 4 N 2.5763 0.0236 0.0 0
M  V30 5 N 1.2763 -2.2218 0.0 0
M  V30 6 C -1.3236 2.269 0.0 0
M  V30 7 C 3.8645 -0.709 0.0 0
M  V30 8 C 2.5645 -2.9545 0.0 0
M  V30 9 O -2.6354 1.5363 0.0 0
M  V30 10 N -1.3354 3.7818 0.0 0
M  V30 11 C 3.8527 -2.1981 0.0 0
M  V30 12 C 5.1527 0.0472 0.0 0
M  V30 13 O 2.5527 -4.4436 0.0 0
M  V30 14 C -2.6472 4.5381 0.0 0
M  V30 15 C 5.1409 -2.9309 0.0 0
M  V30 16 C 6.4409 -0.6854 0.0 0
M  V30 17 C -2.659 6.0509 0.0 0
M  V30 18 C -3.959 3.8054 0.0 0
M  V30 19 C 6.4291 -2.1745 0.0 0
M  V30 20 C -3.9709 6.8072 0.0 0
M  V30 21 C -1.3709 6.8072 0.0 0
M  V30 22 C -5.2709 4.5618 0.0 0
M  V30 23 C -5.2827 6.0627 0.0 0
M  V30 24 C -1.3827 8.32 0.0 0
M  V30 25 C -2.6945 9.0763 0.0 0
M  V30 26 C -0.0945 9.0763 0.0 0
M  V30 27 C -2.7063 10.5891 0.0 0
M  V30 28 C -0.1063 10.5891 0.0 0
M  V30 29 C -1.4181 11.3454 0.0 0
M  V30 END ATOM
M  V30 BEGIN BOND
M  V30 1 1 1 2
M  V30 2 1 1 3
M  V30 3 2 2 4
M  V30 4 1 2 5
M  V30 5 1 3 6
M  V30 6 1 4 7
M  V30 7 1 5 8
M  V30 8 2 6 9
M  V30 9 1 6 10
M  V30 10 2 7 11
M  V30 11 1 7 12
M  V30 12 2 8 13
M  V30 13 1 10 14
M  V30 14 1 11 15
M  V30 15 2 12 16
M  V30 16 2 14 17
M  V30 17 1 14 18
M  V30 18 2 15 19
M  V30 19 1 17 20
M  V30 20 1 17 21
M  V30 21 2 18 22
M  V30 22 2 20 23
M  V30 23 1 21 24
M  V30 24 2 24 25
M  V30 25 1 24 26
M  V30 26 1 25 27
M  V30 27 2 26 28
M  V30 28 2 27 29
M  V30 29 1 8 11
M  V30 30 1 16 19
M  V30 31 1 22 23
M  V30 32 1 28 29
M  V30 END BOND
M  V30 END CTAB
M  END
>  <Structure No>
648

>  <Catalog ID>
Z16078677

>  <MW (desalted)>
401.481

>  <ClogP>
3.214

>  <HBD>
2

>  <TPSA>
70.560

>  <RotBonds>
6

>  <Target>
parp2

>  <fromRegid>


>  <Similarity>


$$$$
Compound 649
Actelion Java MolfileCreator 2.0

  0  0  0  0  0  0              0 V3000
M  V30 BEGIN CTAB
M  V30 COUNTS 25 28 0 0 0
M  V30 BEGIN ATOM
M  V30 1 Cl 0.0 0.0 0.0 0
M  V30 2 C 0.6062 -1.367 0.0 0
M  V30 3 C 2.0921 -1.5097 0.0 0
M  V30 4 C -0.2971 -2.5795 0.0 0
M  V30 5 C 2.6984 -2.8767 0.0 0
M  V30 6 C 0.309 -3.9466 0.0 0
M  V30 7 C 1.795 -4.0892 0.0 0
M  V30 8 C 2.4012 -5.4563 0.0 0
M  V30 9 S 1.6285 -6.752 0.0 0
M  V30 10 N 3.8634 -5.7535 0.0 0
M  V30 11 C 2.6271 -7.8575 0.0 0
M  V30 12 C 4.006 -7.2394 0.0 0
M  V30 13 C 5.3017 -7.9883 0.0 0
M  V30 14 S 6.5975 -7.2156 0.0 0
M  V30 15 C 7.8932 -7.9645 0.0 0
M  V30 16 N 9.1889 -7.1919 0.0 0
M  V30 17 N 7.8813 -9.4624 0.0 0
M  V30 18 C 10.4847 -7.9408 0.0 0
M  V30 19 C 9.1771 -10.2113 0.0 0
M  V30 20 C 10.4728 -9.4386 0.0 0
M  V30 21 C 11.7804 -7.1681 0.0 0
M  V30 22 O 9.1652 -11.7091 0.0 0
M  V30 23 C 11.7685 -10.1875 0.0 0
M  V30 24 C 13.0761 -7.917 0.0 0
M  V30 25 C 13.0642 -9.4148 0.0 0
M  V30 END ATOM
M  V30 BEGIN BOND
M  V30 1 1 1 2
M  V30 2 2 2 3
M  V30 3 1 2 4
M  V30 4 1 3 5
M  V30 5 2 4 6
M  V30 6 2 5 7
M  V30 7 1 7 8
M  V30 8 1 8 9
M  V30 9 2 8 10
M  V30 10 1 9 11
M  V30 11 1 10 12
M  V30 12 1 12 13
M  V30 13 1 13 14
M  V30 14 1 14 15
M  V30 15 2 15 16
M  V30 16 1 15 17
M  V30 17 1 16 18
M  V30 18 1 17 19
M  V30 19 2 18 20
M  V30 20 1 18 21
M  V30 21 2 19 22
M  V30 22 1 20 23
M  V30 23 2 21 24
M  V30 24 2 23 25
M  V30 25 1 6 7
M  V30 26 2 11 12
M  V30 27 1 19 20
M  V30 28 1 24 25
M  V30 END BOND
M  V30 END CTAB
M  END
>  <Structure No>
649

>  <Catalog ID>
Z16079217

>  <MW (desalted)>
385.890

>  <ClogP>
4.209

>  <HBD>
1

>  <TPSA>
54.350

>  <RotBonds>
4

>  <Target>
parp3

>  <fromRegid>


>  <Similarity>


$$$$
Compound 650
Actelion Java MolfileCreator 2.0

  0  0  0  0  0  0              0 V3000
M  V30 BEGIN CTAB
M  V30 COUNTS 27 29 0 0 0
M  V30 BEGIN ATOM
M  V30 1 S 0.0 0.0 0.0 0
M  V30 2 C -0.0118 -1.489 0.0 0
M  V30 3 C -1.3117 0.7563 0.0 0
M  V30 4 N 1.2763 -2.2336 0.0 0
M  V30 5 N -1.3236 -2.2336 0.0 0
M  V30 6 C -1.3236 2.269 0.0 0
M  V30 7 C 1.2645 -3.7226 0.0 0
M  V30 8 C -1.3354 -3.7226 0.0 0
M  V30 9 O -0.0354 3.0254 0.0 0
M  V30 10 N -2.6354 3.0254 0.0 0
M  V30 11 C -0.0472 -4.4553 0.0 0
M  V30 12 C 2.5526 -4.4553 0.0 0
M  V30 13 O -2.6472 -4.4553 0.0 0
M  V30 14 C -2.6472 4.5381 0.0 0
M  V30 15 C -3.9472 2.2926 0.0 0
M  V30 16 C -0.059 -5.9444 0.0 0
M  V30 17 C 2.5408 -5.9444 0.0 0
M  V30 18 C -1.359 5.2944 0.0 0
M  V30 19 C -3.959 5.2944 0.0 0
M  V30 20 C -3.959 0.8036 0.0 0
M  V30 21 C 1.229 -6.6771 0.0 0
M  V30 22 C -1.3708 6.8071 0.0 0
M  V30 23 C -3.9708 6.8071 0.0 0
M  V30 24 C -5.2708 0.0709 0.0 0
M  V30 25 C -2.6826 7.5635 0.0 0
M  V30 26 N -6.5826 -0.6736 0.0 0
M  V30 27 F -2.6945 9.0762 0.0 0
M  V30 END ATOM
M  V30 BEGIN BOND
M  V30 1 1 1 2
M  V30 2 1 1 3
M  V30 3 2 2 4
M  V30 4 1 2 5
M  V30 5 1 3 6
M  V30 6 1 4 7
M  V30 7 1 5 8
M  V30 8 2 6 9
M  V30 9 1 6 10
M  V30 10 2 7 11
M  V30 11 1 7 12
M  V30 12 2 8 13
M  V30 13 1 10 14
M  V30 14 1 10 15
M  V30 15 1 11 16
M  V30 16 2 12 17
M  V30 17 2 14 18
M  V30 18 1 14 19
M  V30 19 1 15 20
M  V30 20 2 16 21
M  V30 21 1 18 22
M  V30 22 2 19 23
M  V30 23 1 20 24
M  V30 24 2 22 25
M  V30 25 3 24 26
M  V30 26 1 25 27
M  V30 27 1 8 11
M  V30 28 1 17 21
M  V30 29 1 23 25
M  V30 END BOND
M  V30 END CTAB
M  END
>  <Structure No>
650

>  <Catalog ID>
Z16078747

>  <MW (desalted)>
382.411

>  <ClogP>
2.084

>  <HBD>
1

>  <TPSA>
85.560

>  <RotBonds>
6

>  <Target>
parp2

>  <fromRegid>


>  <Similarity>


$$$$
Compound 651
Actelion Java MolfileCreator 2.0

  0  0  0  0  0  0              0 V3000
M  V30 BEGIN CTAB
M  V30 COUNTS 19 20 0 0 0
M  V30 BEGIN ATOM
M  V30 1 S 0.0 0.0 0.0 0
M  V30 2 C 1.2897 -0.7454 0.0 0
M  V30 3 C -1.3134 -0.7454 0.0 0
M  V30 4 N 2.5795 0.0236 0.0 0
M  V30 5 N 1.2779 -2.2364 0.0 0
M  V30 6 C -2.6269 0.0236 0.0 0
M  V30 7 C 3.8693 -0.7218 0.0 0
M  V30 8 C 2.5677 -2.97 0.0 0
M  V30 9 O -2.6387 1.5382 0.0 0
M  V30 10 N -3.9403 -0.7218 0.0 0
M  V30 11 C 3.8575 -2.2127 0.0 0
M  V30 12 C 5.1591 0.0473 0.0 0
M  V30 13 O 2.5559 -4.461 0.0 0
M  V30 14 C -5.2538 0.0473 0.0 0
M  V30 15 C 5.1473 -2.9464 0.0 0
M  V30 16 C 6.4489 -0.6981 0.0 0
M  V30 17 C -6.5672 -0.6981 0.0 0
M  V30 18 C -5.2656 1.5619 0.0 0
M  V30 19 C 6.4371 -2.189 0.0 0
M  V30 END ATOM
M  V30 BEGIN BOND
M  V30 1 1 1 2
M  V30 2 1 1 3
M  V30 3 2 2 4
M  V30 4 1 2 5
M  V30 5 1 3 6
M  V30 6 1 4 7
M  V30 7 1 5 8
M  V30 8 2 6 9
M  V30 9 1 6 10
M  V30 10 2 7 11
M  V30 11 1 7 12
M  V30 12 2 8 13
M  V30 13 1 10 14
M  V30 14 1 11 15
M  V30 15 2 12 16
M  V30 16 1 14 17
M  V30 17 1 14 18
M  V30 18 2 15 19
M  V30 19 1 8 11
M  V30 20 1 16 19
M  V30 END BOND
M  V30 END CTAB
M  END
>  <Structure No>
651

>  <Catalog ID>
Z16078846

>  <MW (desalted)>
277.342

>  <ClogP>
0.874

>  <HBD>
2

>  <TPSA>
70.560

>  <RotBonds>
4

>  <Target>
parp15

>  <fromRegid>


>  <Similarity>


$$$$
Compound 652
Actelion Java MolfileCreator 2.0

  0  0  0  0  0  0              0 V3000
M  V30 BEGIN CTAB
M  V30 COUNTS 23 25 0 0 0
M  V30 BEGIN ATOM
M  V30 1 Cl 0.0 0.0 0.0 0
M  V30 2 C -0.0118 1.5169 0.0 0
M  V30 3 C 1.2798 2.2753 0.0 0
M  V30 4 C -1.3273 2.2753 0.0 0
M  V30 5 N 2.5716 1.5406 0.0 0
M  V30 6 C 1.268 3.7922 0.0 0
M  V30 7 C -1.3391 3.7922 0.0 0
M  V30 8 C 3.8634 2.299 0.0 0
M  V30 9 C -0.0474 4.5626 0.0 0
M  V30 10 O 3.8515 3.8159 0.0 0
M  V30 11 C 5.1551 1.5643 0.0 0
M  V30 12 S 6.4469 2.3227 0.0 0
M  V30 13 C 7.7386 1.588 0.0 0
M  V30 14 N 9.0304 2.3464 0.0 0
M  V30 15 N 7.7268 0.0948 0.0 0
M  V30 16 C 10.3221 1.6117 0.0 0
M  V30 17 C 9.0185 -0.6518 0.0 0
M  V30 18 C 10.3103 0.1185 0.0 0
M  V30 19 C 11.6139 2.3701 0.0 0
M  V30 20 O 9.0067 -2.145 0.0 0
M  V30 21 C 11.602 -0.628 0.0 0
M  V30 22 C 12.9056 1.6354 0.0 0
M  V30 23 C 12.8938 0.1422 0.0 0
M  V30 END ATOM
M  V30 BEGIN BOND
M  V30 1 1 1 2
M  V30 2 2 2 3
M  V30 3 1 2 4
M  V30 4 1 3 5
M  V30 5 1 3 6
M  V30 6 2 4 7
M  V30 7 1 5 8
M  V30 8 2 6 9
M  V30 9 2 8 10
M  V30 10 1 8 11
M  V30 11 1 11 12
M  V30 12 1 12 13
M  V30 13 2 13 14
M  V30 14 1 13 15
M  V30 15 1 14 16
M  V30 16 1 15 17
M  V30 17 2 16 18
M  V30 18 1 16 19
M  V30 19 2 17 20
M  V30 20 1 18 21
M  V30 21 2 19 22
M  V30 22 2 21 23
M  V30 23 1 7 9
M  V30 24 1 17 18
M  V30 25 1 22 23
M  V30 END BOND
M  V30 END CTAB
M  END
>  <Structure No>
652

>  <Catalog ID>
Z16079363

>  <MW (desalted)>
345.803

>  <ClogP>
2.138

>  <HBD>
2

>  <TPSA>
70.560

>  <RotBonds>
4

>  <Target>
parp3

>  <fromRegid>


>  <Similarity>


$$$$
Compound 653
Actelion Java MolfileCreator 2.0

  0  0  0  0  0  0              0 V3000
M  V30 BEGIN CTAB
M  V30 COUNTS 27 30 0 0 0
M  V30 BEGIN ATOM
M  V30 1 S 0.0 0.0 0.0 0
M  V30 2 C -1.3107 -0.7321 0.0 0
M  V30 3 C -0.0118 1.5115 0.0 0 CFG=2
M  V30 4 N -1.3225 -2.22 0.0 0
M  V30 5 N -2.6215 0.0236 0.0 0
M  V30 6 C 1.2753 2.279 0.0 0
M  V30 7 C -1.3225 2.279 0.0 0
M  V30 8 C -2.6333 -2.9639 0.0 0
M  V30 9 C -3.9322 -0.7085 0.0 0
M  V30 10 O 2.5624 1.5351 0.0 0
M  V30 11 N 1.2635 3.7905 0.0 0
M  V30 12 C -3.944 -2.1964 0.0 0
M  V30 13 C -2.6451 -4.4518 0.0 0
M  V30 14 O -5.243 0.0472 0.0 0
M  V30 15 C 2.5506 4.5463 0.0 0
M  V30 16 C -5.2548 -2.9403 0.0 0
M  V30 17 C -3.9558 -5.1839 0.0 0
M  V30 18 C 3.8378 3.8023 0.0 0
M  V30 19 C 2.5388 6.0578 0.0 0
M  V30 20 C -5.2666 -4.4282 0.0 0
M  V30 21 C 5.1249 4.5581 0.0 0
M  V30 22 C 3.826 6.8135 0.0 0
M  V30 23 O 6.412 3.8141 0.0 0
M  V30 24 C 5.1131 6.0696 0.0 0
M  V30 25 C 7.6992 4.5699 0.0 0
M  V30 26 O 6.4002 6.8253 0.0 0
M  V30 27 C 7.6874 6.0814 0.0 0
M  V30 END ATOM
M  V30 BEGIN BOND
M  V30 1 1 1 2
M  V30 2 1 3 1 CFG=1
M  V30 3 2 2 4
M  V30 4 1 2 5
M  V30 5 1 3 6
M  V30 6 1 3 7
M  V30 7 1 4 8
M  V30 8 1 5 9
M  V30 9 2 6 10
M  V30 10 1 6 11
M  V30 11 2 8 12
M  V30 12 1 8 13
M  V30 13 2 9 14
M  V30 14 1 11 15
M  V30 15 1 12 16
M  V30 16 2 13 17
M  V30 17 2 15 18
M  V30 18 1 15 19
M  V30 19 2 16 20
M  V30 20 1 18 21
M  V30 21 2 19 22
M  V30 22 1 21 23
M  V30 23 2 21 24
M  V30 24 1 23 25
M  V30 25 1 24 26
M  V30 26 1 25 27
M  V30 27 1 9 12
M  V30 28 1 17 20
M  V30 29 1 22 24
M  V30 30 1 26 27
M  V30 END BOND
M  V30 BEGIN COLLECTION
M  V30 MDLV30/STERAC1 ATOMS=(1 3)
M  V30 END COLLECTION
M  V30 END CTAB
M  END
>  <Structure No>
653

>  <Catalog ID>
Z16078998

>  <MW (desalted)>
383.421

>  <ClogP>
2.342

>  <HBD>
2

>  <TPSA>
89.020

>  <RotBonds>
4

>  <Target>
parp3

>  <fromRegid>


>  <Similarity>


$$$$
Compound 654
Actelion Java MolfileCreator 2.0

  0  0  0  0  0  0              0 V3000
M  V30 BEGIN CTAB
M  V30 COUNTS 26 29 0 0 0
M  V30 BEGIN ATOM
M  V30 1 S 0.0 0.0 0.0 0
M  V30 2 C 1.2886 0.7566 0.0 0
M  V30 3 C -0.0118 -1.4896 0.0 0 CFG=2
M  V30 4 N 1.2768 2.2699 0.0 0
M  V30 5 N 2.5772 0.0236 0.0 0
M  V30 6 C -1.3241 -2.2344 0.0 0
M  V30 7 C 1.2768 -2.2344 0.0 0
M  V30 8 C 2.5654 3.0265 0.0 0
M  V30 9 C 3.8659 0.7802 0.0 0
M  V30 10 O -2.6364 -1.4659 0.0 0
M  V30 11 N -1.3359 -3.724 0.0 0
M  V30 12 C 3.8541 2.2817 0.0 0
M  V30 13 C 2.5536 4.5398 0.0 0
M  V30 14 O 5.1545 0.0472 0.0 0
M  V30 15 C -2.6482 -4.457 0.0 0
M  V30 16 C 5.1427 3.0383 0.0 0
M  V30 17 C 3.8422 5.2964 0.0 0
M  V30 18 C -3.9605 -3.7004 0.0 0
M  V30 19 C -2.66 -5.9466 0.0 0
M  V30 20 C 5.1309 4.5516 0.0 0
M  V30 21 C -5.2728 -4.4334 0.0 0
M  V30 22 C -3.9723 -6.6796 0.0 0
M  V30 23 O -6.7151 -3.9605 0.0 0
M  V30 24 C -5.2846 -5.923 0.0 0
M  V30 25 C -7.6136 -5.1664 0.0 0
M  V30 26 O -6.7269 -6.3722 0.0 0
M  V30 END ATOM
M  V30 BEGIN BOND
M  V30 1 1 1 2
M  V30 2 1 3 1 CFG=1
M  V30 3 2 2 4
M  V30 4 1 2 5
M  V30 5 1 3 6
M  V30 6 1 3 7
M  V30 7 1 4 8
M  V30 8 1 5 9
M  V30 9 2 6 10
M  V30 10 1 6 11
M  V30 11 2 8 12
M  V30 12 1 8 13
M  V30 13 2 9 14
M  V30 14 1 11 15
M  V30 15 1 12 16
M  V30 16 2 13 17
M  V30 17 2 15 18
M  V30 18 1 15 19
M  V30 19 2 16 20
M  V30 20 1 18 21
M  V30 21 2 19 22
M  V30 22 1 21 23
M  V30 23 2 21 24
M  V30 24 1 23 25
M  V30 25 1 24 26
M  V30 26 1 9 12
M  V30 27 1 17 20
M  V30 28 1 22 24
M  V30 29 1 25 26
M  V30 END BOND
M  V30 BEGIN COLLECTION
M  V30 MDLV30/STERAC1 ATOMS=(1 3)
M  V30 END COLLECTION
M  V30 END CTAB
M  END
>  <Structure No>
654

>  <Catalog ID>
Z16078999

>  <MW (desalted)>
369.394

>  <ClogP>
2.383

>  <HBD>
2

>  <TPSA>
89.020

>  <RotBonds>
4

>  <Target>
parp3

>  <fromRegid>


>  <Similarity>


$$$$
Compound 655
Actelion Java MolfileCreator 2.0

  0  0  0  0  0  0              0 V3000
M  V30 BEGIN CTAB
M  V30 COUNTS 25 27 0 0 0
M  V30 BEGIN ATOM
M  V30 1 S 0.0 0.0 0.0 0
M  V30 2 C 1.2891 -0.7332 0.0 0
M  V30 3 C -1.3128 -0.7332 0.0 0 CFG=2
M  V30 4 N 2.5782 0.0236 0.0 0
M  V30 5 N 1.2773 -2.2234 0.0 0
M  V30 6 C -2.6256 0.0236 0.0 0
M  V30 7 C -1.3246 -2.2234 0.0 0
M  V30 8 C 3.8674 -0.7096 0.0 0
M  V30 9 C 2.5664 -2.9685 0.0 0
M  V30 10 O -2.6374 1.5375 0.0 0
M  V30 11 N -3.9384 -0.7096 0.0 0
M  V30 12 C 3.8556 -2.1998 0.0 0
M  V30 13 C 5.1565 0.0473 0.0 0
M  V30 14 O 2.5546 -4.4587 0.0 0
M  V30 15 C -5.2512 0.0473 0.0 0
M  V30 16 C 5.1447 -2.9449 0.0 0
M  V30 17 C 6.4457 -0.6859 0.0 0
M  V30 18 C -6.564 -0.6859 0.0 0
M  V30 19 C -5.263 1.5611 0.0 0
M  V30 20 C 6.4339 -2.1761 0.0 0
M  V30 21 O -6.5758 -2.1761 0.0 0
M  V30 22 C -7.8768 0.0709 0.0 0
M  V30 23 C -6.5758 2.3299 0.0 0
M  V30 24 C -7.8886 -2.9212 0.0 0
M  V30 25 C -7.8886 1.5848 0.0 0
M  V30 END ATOM
M  V30 BEGIN BOND
M  V30 1 1 1 2
M  V30 2 1 3 1 CFG=1
M  V30 3 2 2 4
M  V30 4 1 2 5
M  V30 5 1 3 6
M  V30 6 1 3 7
M  V30 7 1 4 8
M  V30 8 1 5 9
M  V30 9 2 6 10
M  V30 10 1 6 11
M  V30 11 2 8 12
M  V30 12 1 8 13
M  V30 13 2 9 14
M  V30 14 1 11 15
M  V30 15 1 12 16
M  V30 16 2 13 17
M  V30 17 2 15 18
M  V30 18 1 15 19
M  V30 19 2 16 20
M  V30 20 1 18 21
M  V30 21 1 18 22
M  V30 22 2 19 23
M  V30 23 1 21 24
M  V30 24 2 22 25
M  V30 25 1 9 12
M  V30 26 1 17 20
M  V30 27 1 23 25
M  V30 END BOND
M  V30 BEGIN COLLECTION
M  V30 MDLV30/STERAC1 ATOMS=(1 3)
M  V30 END COLLECTION
M  V30 END CTAB
M  END
>  <Structure No>
655

>  <Catalog ID>
Z16079020

>  <MW (desalted)>
355.411

>  <ClogP>
1.811

>  <HBD>
2

>  <TPSA>
79.790

>  <RotBonds>
5

>  <Target>
parp3

>  <fromRegid>


>  <Similarity>


$$$$
Compound 656
Actelion Java MolfileCreator 2.0

  0  0  0  0  0  0              0 V3000
M  V30 BEGIN CTAB
M  V30 COUNTS 23 25 0 0 0
M  V30 BEGIN ATOM
M  V30 1 S 0.0 0.0 0.0 0
M  V30 2 C -1.3114 0.7561 0.0 0
M  V30 3 C 1.2878 0.7561 0.0 0 CFG=2
M  V30 4 N -2.6229 0.0236 0.0 0
M  V30 5 N -1.3232 2.2684 0.0 0
M  V30 6 C 2.5756 0.0236 0.0 0
M  V30 7 C 1.276 2.2684 0.0 0
M  V30 8 C -3.9343 0.7797 0.0 0
M  V30 9 C -2.6347 3.0246 0.0 0
M  V30 10 O 2.5638 -1.465 0.0 0
M  V30 11 N 3.8635 0.7797 0.0 0
M  V30 12 C -3.9462 2.2921 0.0 0
M  V30 13 C -5.2458 0.0472 0.0 0
M  V30 14 O -2.6465 4.5369 0.0 0
M  V30 15 C 5.1513 0.0472 0.0 0
M  V30 16 C -5.2576 3.0482 0.0 0
M  V30 17 C -6.5573 0.8034 0.0 0
M  V30 18 C 6.4391 0.8034 0.0 0
M  V30 19 C 5.1395 -1.4414 0.0 0
M  V30 20 C -6.5691 2.3039 0.0 0
M  V30 21 C 7.727 0.0708 0.0 0
M  V30 22 C 6.4273 -2.1739 0.0 0
M  V30 23 C 7.7151 -1.4178 0.0 0
M  V30 END ATOM
M  V30 BEGIN BOND
M  V30 1 1 1 2
M  V30 2 1 3 1 CFG=1
M  V30 3 2 2 4
M  V30 4 1 2 5
M  V30 5 1 3 6
M  V30 6 1 3 7
M  V30 7 1 4 8
M  V30 8 1 5 9
M  V30 9 2 6 10
M  V30 10 1 6 11
M  V30 11 2 8 12
M  V30 12 1 8 13
M  V30 13 2 9 14
M  V30 14 1 11 15
M  V30 15 1 12 16
M  V30 16 2 13 17
M  V30 17 2 15 18
M  V30 18 1 15 19
M  V30 19 2 16 20
M  V30 20 1 18 21
M  V30 21 2 19 22
M  V30 22 2 21 23
M  V30 23 1 9 12
M  V30 24 1 17 20
M  V30 25 1 22 23
M  V30 END BOND
M  V30 BEGIN COLLECTION
M  V30 MDLV30/STERAC1 ATOMS=(1 3)
M  V30 END COLLECTION
M  V30 END CTAB
M  END
>  <Structure No>
656

>  <Catalog ID>
Z16079023

>  <MW (desalted)>
325.385

>  <ClogP>
2.326

>  <HBD>
2

>  <TPSA>
70.560

>  <RotBonds>
4

>  <Target>
parp3

>  <fromRegid>


>  <Similarity>


$$$$
Compound 657
Actelion Java MolfileCreator 2.0

  0  0  0  0  0  0              0 V3000
M  V30 BEGIN CTAB
M  V30 COUNTS 29 31 0 0 0
M  V30 BEGIN ATOM
M  V30 1 S 0.0 0.0 0.0 0
M  V30 2 C 1.2914 -0.7345 0.0 0
M  V30 3 C -1.3151 -0.7345 0.0 0
M  V30 4 N 2.5828 0.0236 0.0 0
M  V30 5 N 1.2795 -2.2274 0.0 0
M  V30 6 C -2.6302 0.0236 0.0 0
M  V30 7 C 3.8743 -0.7108 0.0 0
M  V30 8 C 2.571 -2.962 0.0 0
M  V30 9 O -2.6421 1.5402 0.0 0
M  V30 10 N -3.9454 -0.7108 0.0 0
M  V30 11 C 3.8624 -2.2037 0.0 0
M  V30 12 C 5.1657 0.0473 0.0 0
M  V30 13 O 2.5591 -4.4548 0.0 0
M  V30 14 C -5.2605 0.0473 0.0 0
M  V30 15 C 5.1539 -2.9383 0.0 0
M  V30 16 C 6.4572 -0.6871 0.0 0
M  V30 17 C -6.5757 -0.6871 0.0 0
M  V30 18 C 6.4453 -2.18 0.0 0
M  V30 19 O -6.5875 -2.18 0.0 0
M  V30 20 N -7.8908 0.071 0.0 0
M  V30 21 C -9.206 -0.6634 0.0 0
M  V30 22 C -9.2178 -2.1563 0.0 0
M  V30 23 C -10.5211 0.0947 0.0 0
M  V30 24 F -7.9264 -2.8909 0.0 0
M  V30 25 C -10.5329 -2.8909 0.0 0
M  V30 26 C -11.8362 -0.6397 0.0 0
M  V30 27 F -10.5448 -4.3838 0.0 0
M  V30 28 C -11.8481 -2.1326 0.0 0
M  V30 29 F -13.1632 -2.8672 0.0 0
M  V30 END ATOM
M  V30 BEGIN BOND
M  V30 1 1 1 2
M  V30 2 1 1 3
M  V30 3 2 2 4
M  V30 4 1 2 5
M  V30 5 1 3 6
M  V30 6 1 4 7
M  V30 7 1 5 8
M  V30 8 2 6 9
M  V30 9 1 6 10
M  V30 10 2 7 11
M  V30 11 1 7 12
M  V30 12 2 8 13
M  V30 13 1 10 14
M  V30 14 1 11 15
M  V30 15 2 12 16
M  V30 16 1 14 17
M  V30 17 2 15 18
M  V30 18 2 17 19
M  V30 19 1 17 20
M  V30 20 1 20 21
M  V30 21 2 21 22
M  V30 22 1 21 23
M  V30 23 1 22 24
M  V30 24 1 22 25
M  V30 25 2 23 26
M  V30 26 1 25 27
M  V30 27 2 25 28
M  V30 28 1 28 29
M  V30 29 1 8 11
M  V30 30 1 16 18
M  V30 31 1 26 28
M  V30 END BOND
M  V30 END CTAB
M  END
>  <Structure No>
657

>  <Catalog ID>
Z16079551

>  <MW (desalted)>
422.381

>  <ClogP>
1.392

>  <HBD>
3

>  <TPSA>
99.660

>  <RotBonds>
6

>  <Target>
Tankyrase1

>  <fromRegid>


>  <Similarity>


$$$$
Compound 658
Actelion Java MolfileCreator 2.0

  0  0  0  0  0  0              0 V3000
M  V30 BEGIN CTAB
M  V30 COUNTS 20 22 0 0 0
M  V30 BEGIN ATOM
M  V30 1 S 0.0 0.0 0.0 0
M  V30 2 C 1.2889 -0.7331 0.0 0
M  V30 3 C -0.0118 1.5136 0.0 0
M  V30 4 N 2.5779 0.0236 0.0 0
M  V30 5 N 1.2771 -2.2231 0.0 0
M  V30 6 C -1.3244 2.2704 0.0 0
M  V30 7 C 3.8669 -0.7095 0.0 0
M  V30 8 C 2.5661 -2.9682 0.0 0
M  V30 9 O -2.637 1.5373 0.0 0
M  V30 10 N -1.3362 3.7841 0.0 0
M  V30 11 C 3.8551 -2.1995 0.0 0
M  V30 12 C 5.1559 0.0473 0.0 0
M  V30 13 O 2.5543 -4.4582 0.0 0
M  V30 14 C -2.5661 4.6829 0.0 0
M  V30 15 C -0.13 4.6829 0.0 0
M  V30 16 C 5.144 -2.9445 0.0 0
M  V30 17 C 6.4449 -0.6858 0.0 0
M  V30 18 C -2.1167 6.1256 0.0 0
M  V30 19 C -0.6031 6.1256 0.0 0
M  V30 20 C 6.433 -2.1877 0.0 0
M  V30 END ATOM
M  V30 BEGIN BOND
M  V30 1 1 1 2
M  V30 2 1 1 3
M  V30 3 2 2 4
M  V30 4 1 2 5
M  V30 5 1 3 6
M  V30 6 1 4 7
M  V30 7 1 5 8
M  V30 8 2 6 9
M  V30 9 1 6 10
M  V30 10 2 7 11
M  V30 11 1 7 12
M  V30 12 2 8 13
M  V30 13 1 10 14
M  V30 14 1 10 15
M  V30 15 1 11 16
M  V30 16 2 12 17
M  V30 17 1 14 18
M  V30 18 1 15 19
M  V30 19 2 16 20
M  V30 20 1 8 11
M  V30 21 1 17 20
M  V30 22 1 18 19
M  V30 END BOND
M  V30 END CTAB
M  END
>  <Structure No>
658

>  <Catalog ID>
Z16079625

>  <MW (desalted)>
289.353

>  <ClogP>
0.820

>  <HBD>
1

>  <TPSA>
61.770

>  <RotBonds>
3

>  <Target>
parp2

>  <fromRegid>


>  <Similarity>


$$$$
Compound 659
Actelion Java MolfileCreator 2.0

  0  0  0  0  0  0              0 V3000
M  V30 BEGIN CTAB
M  V30 COUNTS 27 29 0 0 0
M  V30 BEGIN ATOM
M  V30 1 F 0.0 0.0 0.0 0
M  V30 2 C -0.7579 -1.2908 0.0 0
M  V30 3 C -0.0236 -2.5817 0.0 0
M  V30 4 C -2.2738 -1.279 0.0 0
M  V30 5 F 1.4685 -2.5698 0.0 0
M  V30 6 C -0.7816 -3.8725 0.0 0
M  V30 7 F -3.0317 0.0355 0.0 0
M  V30 8 C -3.0317 -2.5698 0.0 0
M  V30 9 N -0.0473 -5.1634 0.0 0
M  V30 10 C -2.2975 -3.8607 0.0 0
M  V30 11 C 1.4448 -5.1516 0.0 0
M  V30 12 O 2.179 -3.837 0.0 0
M  V30 13 C 2.179 -6.4424 0.0 0
M  V30 14 N 3.6712 -6.4306 0.0 0
M  V30 15 C 4.5476 -5.1989 0.0 0
M  V30 16 C 4.5476 -7.6385 0.0 0
M  V30 17 O 4.0739 -3.7541 0.0 0
M  V30 18 C 5.9687 -5.649 0.0 0
M  V30 19 O 4.0739 -9.0597 0.0 0
M  V30 20 C 5.9687 -7.1648 0.0 0
M  V30 21 C 7.2596 -4.891 0.0 0
M  V30 22 C 7.2596 -7.8991 0.0 0
M  V30 23 N 7.2477 -3.3751 0.0 0 CHG=1
M  V30 24 C 8.5504 -5.6253 0.0 0
M  V30 25 C 8.5504 -7.1412 0.0 0
M  V30 26 O 5.9332 -2.6172 0.0 0
M  V30 27 O 8.5386 -2.6172 0.0 0 CHG=-1
M  V30 END ATOM
M  V30 BEGIN BOND
M  V30 1 1 1 2
M  V30 2 2 2 3
M  V30 3 1 2 4
M  V30 4 1 3 5
M  V30 5 1 3 6
M  V30 6 1 4 7
M  V30 7 2 4 8
M  V30 8 1 6 9
M  V30 9 2 6 10
M  V30 10 1 9 11
M  V30 11 2 11 12
M  V30 12 1 11 13
M  V30 13 1 13 14
M  V30 14 1 14 15
M  V30 15 1 14 16
M  V30 16 2 15 17
M  V30 17 1 15 18
M  V30 18 2 16 19
M  V30 19 1 16 20
M  V30 20 1 18 21
M  V30 21 1 20 22
M  V30 22 1 21 23
M  V30 23 2 21 24
M  V30 24 2 22 25
M  V30 25 2 23 26
M  V30 26 1 23 27
M  V30 27 1 8 10
M  V30 28 2 18 20
M  V30 29 1 24 25
M  V30 END BOND
M  V30 END CTAB
M  END
>  <Structure No>
659

>  <Catalog ID>
Z16107166

>  <MW (desalted)>
379.247

>  <ClogP>
2.245

>  <HBD>
1

>  <TPSA>
109.620

>  <RotBonds>
4

>  <Target>
DNA_pk

>  <fromRegid>


>  <Similarity>


$$$$
Compound 660
Actelion Java MolfileCreator 2.0

  0  0  0  0  0  0              0 V3000
M  V30 BEGIN CTAB
M  V30 COUNTS 23 25 0 0 0
M  V30 BEGIN ATOM
M  V30 1 O 0.0 0.0 0.0 0
M  V30 2 C -0.0118 -1.4905 0.0 0
M  V30 3 N -1.3249 -2.2357 0.0 0
M  V30 4 C 1.2775 -2.2357 0.0 0
M  V30 5 C -2.638 -1.4668 0.0 0
M  V30 6 O 2.567 -1.4668 0.0 0
M  V30 7 C -3.951 -2.2121 0.0 0
M  V30 8 C -2.6498 0.0473 0.0 0
M  V30 9 C 3.8564 -2.2121 0.0 0
M  V30 10 C -5.2641 -1.4432 0.0 0
M  V30 11 C -3.9629 0.8044 0.0 0
M  V30 12 C 3.8446 -3.7026 0.0 0
M  V30 13 C 5.1458 -1.4432 0.0 0
M  V30 14 C -6.5772 -2.1884 0.0 0
M  V30 15 C -5.276 0.0709 0.0 0
M  V30 16 C 5.134 -4.4361 0.0 0
M  V30 17 C 6.4353 -2.1884 0.0 0
M  V30 18 O -6.589 -3.679 0.0 0
M  V30 19 C -7.8903 -1.4195 0.0 0
M  V30 20 C 6.4234 -3.679 0.0 0
M  V30 21 C 5.4297 -5.8911 0.0 0
M  V30 22 C 7.5236 -4.6726 0.0 0
M  V30 23 C 6.9084 -6.033 0.0 0
M  V30 END ATOM
M  V30 BEGIN BOND
M  V30 1 2 1 2
M  V30 2 1 2 3
M  V30 3 1 2 4
M  V30 4 1 3 5
M  V30 5 1 4 6
M  V30 6 2 5 7
M  V30 7 1 5 8
M  V30 8 1 6 9
M  V30 9 1 7 10
M  V30 10 2 8 11
M  V30 11 2 9 12
M  V30 12 1 9 13
M  V30 13 1 10 14
M  V30 14 2 10 15
M  V30 15 1 12 16
M  V30 16 2 13 17
M  V30 17 2 14 18
M  V30 18 1 14 19
M  V30 19 2 16 20
M  V30 20 1 16 21
M  V30 21 1 20 22
M  V30 22 1 21 23
M  V30 23 1 11 15
M  V30 24 1 17 20
M  V30 25 1 22 23
M  V30 END BOND
M  V30 END CTAB
M  END
>  <Structure No>
660

>  <Catalog ID>
Z16115995

>  <MW (desalted)>
309.359

>  <ClogP>
3.599

>  <HBD>
1

>  <TPSA>
55.400

>  <RotBonds>
5

>  <Target>
parp14

>  <fromRegid>


>  <Similarity>


$$$$
Compound 661
Actelion Java MolfileCreator 2.0

  0  0  0  0  0  0              0 V3000
M  V30 BEGIN CTAB
M  V30 COUNTS 31 34 0 0 0
M  V30 BEGIN ATOM
M  V30 1 Cl 0.0 0.0 0.0 0
M  V30 2 C -1.307 -0.73 0.0 0
M  V30 3 C -2.6141 0.0235 0.0 0
M  V30 4 C -1.3188 -2.2137 0.0 0
M  V30 5 C -3.9212 -0.7065 0.0 0
M  V30 6 C -2.6259 -2.9556 0.0 0
M  V30 7 N -5.2283 0.0471 0.0 0
M  V30 8 C -3.933 -2.1902 0.0 0
M  V30 9 C -6.5354 -0.6829 0.0 0
M  V30 10 C -5.24 -2.932 0.0 0
M  V30 11 S -7.8424 0.0706 0.0 0
M  V30 12 N -6.5471 -2.1666 0.0 0
M  V30 13 O -5.2518 -4.4158 0.0 0
M  V30 14 C -7.8542 1.5779 0.0 0 CFG=2
M  V30 15 C -7.8542 -2.9085 0.0 0
M  V30 16 C -6.5707 2.3315 0.0 0
M  V30 17 C -9.1613 2.3315 0.0 0
M  V30 18 C -7.866 -4.3922 0.0 0
M  V30 19 C -9.1613 -2.1549 0.0 0
M  V30 20 O -5.2871 1.6014 0.0 0
M  V30 21 N -6.5825 3.8388 0.0 0
M  V30 22 C -9.1731 -5.1341 0.0 0
M  V30 23 C -10.4684 -2.8967 0.0 0
M  V30 24 C -7.8895 4.5924 0.0 0
M  V30 25 C -5.2989 4.5924 0.0 0
M  V30 26 C -10.4801 -4.3687 0.0 0
M  V30 27 C -9.1966 3.8623 0.0 0
M  V30 28 C -7.9013 6.0997 0.0 0
M  V30 29 C -10.5037 4.6159 0.0 0
M  V30 30 C -9.2084 6.8651 0.0 0
M  V30 31 C -10.5155 6.1232 0.0 0
M  V30 END ATOM
M  V30 BEGIN BOND
M  V30 1 1 1 2
M  V30 2 2 2 3
M  V30 3 1 2 4
M  V30 4 1 3 5
M  V30 5 2 4 6
M  V30 6 1 5 7
M  V30 7 2 5 8
M  V30 8 2 7 9
M  V30 9 1 8 10
M  V30 10 1 9 11
M  V30 11 1 9 12
M  V30 12 2 10 13
M  V30 13 1 14 11 CFG=1
M  V30 14 1 12 15
M  V30 15 1 14 16
M  V30 16 1 14 17
M  V30 17 2 15 18
M  V30 18 1 15 19
M  V30 19 2 16 20
M  V30 20 1 16 21
M  V30 21 1 18 22
M  V30 22 2 19 23
M  V30 23 1 21 24
M  V30 24 1 21 25
M  V30 25 2 22 26
M  V30 26 2 24 27
M  V30 27 1 24 28
M  V30 28 1 27 29
M  V30 29 2 28 30
M  V30 30 2 29 31
M  V30 31 1 6 8
M  V30 32 1 10 12
M  V30 33 1 23 26
M  V30 34 1 30 31
M  V30 END BOND
M  V30 BEGIN COLLECTION
M  V30 MDLV30/STERAC1 ATOMS=(1 14)
M  V30 END COLLECTION
M  V30 END CTAB
M  END
>  <Structure No>
661

>  <Catalog ID>
Z16111959

>  <MW (desalted)>
449.953

>  <ClogP>
5.439

>  <HBD>
0

>  <TPSA>
52.980

>  <RotBonds>
5

>  <Target>
Serine/threonine-protein kinase Chk1

>  <fromRegid>
CHEMBL460853

>  <Similarity>
0.87

$$$$
Compound 662
Actelion Java MolfileCreator 2.0

  0  0  0  0  0  0              0 V3000
M  V30 BEGIN CTAB
M  V30 COUNTS 26 28 0 0 0
M  V30 BEGIN ATOM
M  V30 1 O 0.0 0.0 0.0 0
M  V30 2 C -1.3164 -0.7353 0.0 0
M  V30 3 N -2.6328 0.0237 0.0 0
M  V30 4 C -1.3283 -2.2296 0.0 0
M  V30 5 C -0.0355 -2.9768 0.0 0
M  V30 6 C -2.6447 -2.9768 0.0 0
M  V30 7 C -0.0474 -4.4711 0.0 0
M  V30 8 C -2.6566 -4.4711 0.0 0
M  V30 9 N 1.2452 -5.2183 0.0 0
M  V30 10 C -1.3638 -5.2183 0.0 0
M  V30 11 C -3.973 -5.2183 0.0 0
M  V30 12 C 2.538 -4.4474 0.0 0
M  V30 13 O -5.2895 -4.4474 0.0 0
M  V30 14 N -3.9849 -6.7126 0.0 0
M  V30 15 O 2.5261 -2.9293 0.0 0
M  V30 16 C 3.8307 -5.1946 0.0 0
M  V30 17 O 5.1234 -4.4237 0.0 0
M  V30 18 C 6.4161 -5.1709 0.0 0
M  V30 19 C 6.4043 -6.6652 0.0 0
M  V30 20 C 7.7089 -4.4 0.0 0
M  V30 21 C 7.697 -7.4005 0.0 0
M  V30 22 C 9.0016 -5.1471 0.0 0
M  V30 23 C 8.9897 -6.6415 0.0 0
M  V30 24 C 7.9935 -8.8593 0.0 0
M  V30 25 C 10.0927 -7.6377 0.0 0
M  V30 26 C 9.476 -9.0016 0.0 0
M  V30 END ATOM
M  V30 BEGIN BOND
M  V30 1 2 1 2
M  V30 2 1 2 3
M  V30 3 1 2 4
M  V30 4 2 4 5
M  V30 5 1 4 6
M  V30 6 1 5 7
M  V30 7 2 6 8
M  V30 8 1 7 9
M  V30 9 2 7 10
M  V30 10 1 8 11
M  V30 11 1 9 12
M  V30 12 2 11 13
M  V30 13 1 11 14
M  V30 14 2 12 15
M  V30 15 1 12 16
M  V30 16 1 16 17
M  V30 17 1 17 18
M  V30 18 2 18 19
M  V30 19 1 18 20
M  V30 20 1 19 21
M  V30 21 2 20 22
M  V30 22 2 21 23
M  V30 23 1 21 24
M  V30 24 1 23 25
M  V30 25 1 24 26
M  V30 26 1 8 10
M  V30 27 1 22 23
M  V30 28 1 25 26
M  V30 END BOND
M  V30 END CTAB
M  END
>  <Structure No>
662

>  <Catalog ID>
Z16115734

>  <MW (desalted)>
353.372

>  <ClogP>
1.229

>  <HBD>
3

>  <TPSA>
124.510

>  <RotBonds>
6

>  <Target>
parp14

>  <fromRegid>


>  <Similarity>


$$$$
Compound 663
Actelion Java MolfileCreator 2.0

  0  0  0  0  0  0              0 V3000
M  V30 BEGIN CTAB
M  V30 COUNTS 25 27 0 0 0
M  V30 BEGIN ATOM
M  V30 1 F 0.0 0.0 0.0 0
M  V30 2 C 0.4477 1.4374 0.0 0
M  V30 3 F -0.9897 1.9087 0.0 0
M  V30 4 F 1.8615 0.9897 0.0 0
M  V30 5 C 0.8954 2.8748 0.0 0
M  V30 6 C -0.1178 3.9941 0.0 0
M  V30 7 C 2.3446 3.1929 0.0 0
M  V30 8 N 0.3299 5.4315 0.0 0
M  V30 9 C 2.7923 4.6304 0.0 0
M  V30 10 C 1.7791 5.7497 0.0 0
M  V30 11 N 4.2415 4.9485 0.0 0
M  V30 12 O 2.2268 7.1871 0.0 0
M  V30 13 C 4.6893 6.3859 0.0 0
M  V30 14 O 3.676 7.5052 0.0 0
M  V30 15 C 6.1385 6.704 0.0 0
M  V30 16 C 6.5862 8.1415 0.0 0
M  V30 17 C 8.0001 8.6127 0.0 0
M  V30 18 C 5.6908 9.3668 0.0 0
M  V30 19 C 7.9883 10.1209 0.0 0
M  V30 20 C 9.2843 7.8705 0.0 0
M  V30 21 N 6.5626 10.5922 0.0 0
M  V30 22 C 4.1826 9.3786 0.0 0
M  V30 23 C 9.2725 10.8867 0.0 0
M  V30 24 C 10.5686 8.6363 0.0 0
M  V30 25 C 10.5568 10.1562 0.0 0
M  V30 END ATOM
M  V30 BEGIN BOND
M  V30 1 1 1 2
M  V30 2 1 2 3
M  V30 3 1 2 4
M  V30 4 1 2 5
M  V30 5 2 5 6
M  V30 6 1 5 7
M  V30 7 1 6 8
M  V30 8 2 7 9
M  V30 9 1 8 10
M  V30 10 1 9 11
M  V30 11 2 10 12
M  V30 12 1 11 13
M  V30 13 2 13 14
M  V30 14 1 13 15
M  V30 15 1 15 16
M  V30 16 1 16 17
M  V30 17 2 16 18
M  V30 18 2 17 19
M  V30 19 1 17 20
M  V30 20 1 18 21
M  V30 21 1 18 22
M  V30 22 1 19 23
M  V30 23 2 20 24
M  V30 24 2 23 25
M  V30 25 1 9 10
M  V30 26 1 19 21
M  V30 27 1 24 25
M  V30 END BOND
M  V30 END CTAB
M  END
>  <Structure No>
663

>  <Catalog ID>
Z507534416

>  <MW (desalted)>
349.307

>  <ClogP>
2.028

>  <HBD>
3

>  <TPSA>
73.990

>  <RotBonds>
4

>  <Target>
CHK1

>  <fromRegid>


>  <Similarity>


$$$$
Compound 664
Actelion Java MolfileCreator 2.0

  0  0  0  0  0  0              0 V3000
M  V30 BEGIN CTAB
M  V30 COUNTS 21 22 0 0 0
M  V30 BEGIN ATOM
M  V30 1 F 0.0 0.0 0.0 0
M  V30 2 C 1.2924 0.7588 0.0 0
M  V30 3 F 2.0394 -0.5335 0.0 0
M  V30 4 F 0.5335 2.075 0.0 0
M  V30 5 C 2.5848 1.5177 0.0 0
M  V30 6 C 2.573 3.0354 0.0 0
M  V30 7 C 3.8772 0.7707 0.0 0
M  V30 8 N 3.8654 3.7942 0.0 0
M  V30 9 C 5.1697 1.5295 0.0 0
M  V30 10 C 5.1578 3.0591 0.0 0
M  V30 11 N 6.4621 0.7825 0.0 0
M  V30 12 O 6.4503 3.818 0.0 0
M  V30 13 C 7.7545 1.5414 0.0 0
M  V30 14 O 7.7427 3.0591 0.0 0
M  V30 15 C 9.047 0.7944 0.0 0
M  V30 16 C 10.3394 1.5532 0.0 0
M  V30 17 N 11.6318 0.8062 0.0 0
M  V30 18 N 11.7741 -0.6758 0.0 0
M  V30 19 C 12.9954 1.4347 0.0 0
M  V30 20 C 13.2326 -0.9722 0.0 0
M  V30 21 N 13.9914 0.332 0.0 0
M  V30 END ATOM
M  V30 BEGIN BOND
M  V30 1 1 1 2
M  V30 2 1 2 3
M  V30 3 1 2 4
M  V30 4 1 2 5
M  V30 5 2 5 6
M  V30 6 1 5 7
M  V30 7 1 6 8
M  V30 8 2 7 9
M  V30 9 1 8 10
M  V30 10 1 9 11
M  V30 11 2 10 12
M  V30 12 1 11 13
M  V30 13 2 13 14
M  V30 14 1 13 15
M  V30 15 1 15 16
M  V30 16 1 16 17
M  V30 17 1 17 18
M  V30 18 1 17 19
M  V30 19 2 18 20
M  V30 20 2 19 21
M  V30 21 1 9 10
M  V30 22 1 20 21
M  V30 END BOND
M  V30 END CTAB
M  END
>  <Structure No>
664

>  <Catalog ID>
Z507530164

>  <MW (desalted)>
301.225

>  <ClogP>
-0.650

>  <HBD>
2

>  <TPSA>
88.910

>  <RotBonds>
5

>  <Target>
ATM

>  <fromRegid>


>  <Similarity>


$$$$
Compound 665
Actelion Java MolfileCreator 2.0

  0  0  0  0  0  0              0 V3000
M  V30 BEGIN CTAB
M  V30 COUNTS 27 29 0 0 0
M  V30 BEGIN ATOM
M  V30 1 Cl 0.0 0.0 0.0 0
M  V30 2 C -1.4718 0.3179 0.0 0
M  V30 3 C -1.9428 1.7544 0.0 0
M  V30 4 C -2.4844 -0.7771 0.0 0
M  V30 5 C -3.4146 2.0723 0.0 0
M  V30 6 C -3.9562 -0.4592 0.0 0
M  V30 7 O -4.1799 3.3793 0.0 0
M  V30 8 C -4.4272 0.9772 0.0 0
M  V30 9 C -5.6518 3.0849 0.0 0
M  V30 10 N -5.8048 1.6013 0.0 0
M  V30 11 O -6.7704 4.0975 0.0 0
M  V30 12 C -7.1118 0.8713 0.0 0
M  V30 13 C -8.4188 1.6249 0.0 0
M  V30 14 C -9.7258 0.8948 0.0 0
M  V30 15 O -9.7376 -0.5887 0.0 0
M  V30 16 N -11.0328 1.6484 0.0 0
M  V30 17 C -12.3398 0.9184 0.0 0
M  V30 18 C -13.6468 1.6719 0.0 0
M  V30 19 C -12.3516 -0.5651 0.0 0
M  V30 20 O -13.6585 3.1791 0.0 0
M  V30 21 N -14.9537 0.9419 0.0 0
M  V30 22 C -13.6585 -1.3069 0.0 0
M  V30 23 C -14.9655 -0.5416 0.0 0
M  V30 24 C -13.6703 -2.7905 0.0 0
M  V30 25 F -13.6821 -4.2741 0.0 0
M  V30 26 F -12.1867 -2.7788 0.0 0
M  V30 27 F -15.1775 -2.7788 0.0 0
M  V30 END ATOM
M  V30 BEGIN BOND
M  V30 1 1 1 2
M  V30 2 2 2 3
M  V30 3 1 2 4
M  V30 4 1 3 5
M  V30 5 2 4 6
M  V30 6 1 5 7
M  V30 7 2 5 8
M  V30 8 1 7 9
M  V30 9 1 8 10
M  V30 10 2 9 11
M  V30 11 1 10 12
M  V30 12 1 12 13
M  V30 13 1 13 14
M  V30 14 2 14 15
M  V30 15 1 14 16
M  V30 16 1 16 17
M  V30 17 1 17 18
M  V30 18 2 17 19
M  V30 19 2 18 20
M  V30 20 1 18 21
M  V30 21 1 19 22
M  V30 22 1 21 23
M  V30 23 1 22 24
M  V30 24 1 24 25
M  V30 25 1 24 26
M  V30 26 1 24 27
M  V30 27 1 6 8
M  V30 28 1 9 10
M  V30 29 2 22 23
M  V30 END BOND
M  V30 END CTAB
M  END
>  <Structure No>
665

>  <Catalog ID>
Z507533466

>  <MW (desalted)>
401.724

>  <ClogP>
1.984

>  <HBD>
2

>  <TPSA>
87.740

>  <RotBonds>
5

>  <Target>
parp10

>  <fromRegid>


>  <Similarity>


$$$$
Compound 666
Actelion Java MolfileCreator 2.0

  0  0  0  0  0  0              0 V3000
M  V30 BEGIN CTAB
M  V30 COUNTS 25 28 0 0 0
M  V30 BEGIN ATOM
M  V30 1 O 0.0 0.0 0.0 0
M  V30 2 C -0.3184 -1.4506 0.0 0
M  V30 3 N 0.7784 -2.4413 0.0 0
M  V30 4 C -1.7573 -1.8988 0.0 0 CFG=1
M  V30 5 N -2.9839 -1.0024 0.0 0
M  V30 6 C -2.229 -3.3141 0.0 0
M  V30 7 C -2.9956 0.5071 0.0 0
M  V30 8 C -4.2104 -1.8752 0.0 0
M  V30 9 C -3.7387 -3.3023 0.0 0
M  V30 10 C -4.3048 1.2619 0.0 0
M  V30 11 C -1.7101 1.2619 0.0 0
M  V30 12 C -4.3166 2.7716 0.0 0
M  V30 13 C -1.7219 2.7716 0.0 0
M  V30 14 N -3.031 3.5382 0.0 0
M  V30 15 C -3.0428 5.0478 0.0 0
M  V30 16 C -1.7573 5.8026 0.0 0
M  V30 17 C -1.7691 7.3123 0.0 0
M  V30 18 C -0.4717 5.0596 0.0 0
M  V30 19 N -0.4835 8.0671 0.0 0
M  V30 20 C 0.8137 5.8144 0.0 0
M  V30 21 C 0.8019 7.3359 0.0 0
M  V30 22 C 2.0993 5.0714 0.0 0
M  V30 23 C 2.0875 8.0907 0.0 0
M  V30 24 C 3.3849 5.8262 0.0 0
M  V30 25 C 3.3731 7.3595 0.0 0
M  V30 END ATOM
M  V30 BEGIN BOND
M  V30 1 2 1 2
M  V30 2 1 2 3
M  V30 3 1 4 2 CFG=3
M  V30 4 1 4 5
M  V30 5 1 4 6
M  V30 6 1 5 7
M  V30 7 1 5 8
M  V30 8 1 6 9
M  V30 9 1 7 10
M  V30 10 1 7 11
M  V30 11 1 10 12
M  V30 12 1 11 13
M  V30 13 1 12 14
M  V30 14 1 14 15
M  V30 15 1 15 16
M  V30 16 1 16 17
M  V30 17 2 16 18
M  V30 18 2 17 19
M  V30 19 1 18 20
M  V30 20 1 19 21
M  V30 21 2 20 22
M  V30 22 2 21 23
M  V30 23 1 22 24
M  V30 24 1 23 25
M  V30 25 1 8 9
M  V30 26 1 13 14
M  V30 27 1 20 21
M  V30 28 2 24 25
M  V30 END BOND
M  V30 BEGIN COLLECTION
M  V30 MDLV30/STERAC1 ATOMS=(1 4)
M  V30 END COLLECTION
M  V30 END CTAB
M  END
>  <Structure No>
666

>  <Catalog ID>
Z1989711061

>  <MW (desalted)>
338.447

>  <ClogP>
1.253

>  <HBD>
1

>  <TPSA>
62.460

>  <RotBonds>
4

>  <Target>
ATM

>  <fromRegid>


>  <Similarity>


$$$$
Compound 667
Actelion Java MolfileCreator 2.0

  0  0  0  0  0  0              0 V3000
M  V30 BEGIN CTAB
M  V30 COUNTS 25 27 0 0 0
M  V30 BEGIN ATOM
M  V30 1 O 0.0 0.0 0.0 0
M  V30 2 C -0.0117 1.5098 0.0 0
M  V30 3 N -1.3211 2.2765 0.0 0
M  V30 4 C 1.2739 2.2765 0.0 0
M  V30 5 C -2.6304 1.5334 0.0 0 CFG=2
M  V30 6 N 2.5596 1.5334 0.0 0
M  V30 7 C 1.2621 3.7864 0.0 0
M  V30 8 C -3.9397 2.3001 0.0 0
M  V30 9 C -2.6422 0.0471 0.0 0
M  V30 10 C 3.8454 2.3001 0.0 0
M  V30 11 C 2.8545 0.0825 0.0 0
M  V30 12 C 2.5478 4.5413 0.0 0
M  V30 13 C -5.2491 1.557 0.0 0
M  V30 14 N 3.8336 3.81 0.0 0
M  V30 15 C 4.9424 1.3093 0.0 0
M  V30 16 N 4.329 -0.0589 0.0 0
M  V30 17 C 2.536 6.0512 0.0 0
M  V30 18 C -6.5584 2.3237 0.0 0
M  V30 19 C 6.3933 1.6278 0.0 0
M  V30 20 O 3.7392 6.9477 0.0 0
M  V30 21 C 1.3093 6.9477 0.0 0
M  V30 22 O 6.8415 3.0668 0.0 0
M  V30 23 N 7.3841 0.5308 0.0 0
M  V30 24 C 3.2674 8.3867 0.0 0
M  V30 25 C 1.7575 8.3867 0.0 0
M  V30 END ATOM
M  V30 BEGIN BOND
M  V30 1 2 1 2
M  V30 2 1 2 3
M  V30 3 1 2 4
M  V30 4 1 5 3 CFG=1
M  V30 5 1 4 6
M  V30 6 2 4 7
M  V30 7 1 5 8
M  V30 8 1 5 9
M  V30 9 1 6 10
M  V30 10 1 6 11
M  V30 11 1 7 12
M  V30 12 1 8 13
M  V30 13 1 10 14
M  V30 14 2 10 15
M  V30 15 2 11 16
M  V30 16 1 12 17
M  V30 17 1 13 18
M  V30 18 1 15 19
M  V30 19 1 17 20
M  V30 20 2 17 21
M  V30 21 2 19 22
M  V30 22 1 19 23
M  V30 23 1 20 24
M  V30 24 1 21 25
M  V30 25 2 12 14
M  V30 26 1 15 16
M  V30 27 2 24 25
M  V30 END BOND
M  V30 BEGIN COLLECTION
M  V30 MDLV30/STERAC1 ATOMS=(1 5)
M  V30 END COLLECTION
M  V30 END CTAB
M  END
>  <Structure No>
667

>  <Catalog ID>
Z319697674

>  <MW (desalted)>
341.364

>  <ClogP>
3.125

>  <HBD>
2

>  <TPSA>
115.520

>  <RotBonds>
6

>  <Target>
parp14

>  <fromRegid>


>  <Similarity>


$$$$
Compound 668
Actelion Java MolfileCreator 2.0

  0  0  0  0  0  0              0 V3000
M  V30 BEGIN CTAB
M  V30 COUNTS 27 28 0 0 0
M  V30 BEGIN ATOM
M  V30 1 S 0.0 0.0 0.0 0
M  V30 2 O 0.7365 -1.2949 0.0 0
M  V30 3 O -0.7603 1.3187 0.0 0
M  V30 4 N -1.3187 -0.7365 0.0 0
M  V30 5 C 1.2949 0.7603 0.0 0
M  V30 6 C 1.283 2.281 0.0 0
M  V30 7 C 2.5898 0.0237 0.0 0
M  V30 8 C 2.578 3.0413 0.0 0
M  V30 9 C 3.8848 0.784 0.0 0
M  V30 10 C 3.8729 2.3047 0.0 0
M  V30 11 C 5.1678 3.065 0.0 0
M  V30 12 C 6.4628 2.3285 0.0 0
M  V30 13 N 7.7577 3.0888 0.0 0
M  V30 14 C 9.0527 2.3522 0.0 0
M  V30 15 O 9.0408 0.8553 0.0 0
M  V30 16 C 10.3476 3.1126 0.0 0
M  V30 17 N 11.6426 2.376 0.0 0
M  V30 18 C 12.9375 3.1363 0.0 0
M  V30 19 O 12.9256 4.657 0.0 0
M  V30 20 C 14.2324 2.3998 0.0 0
M  V30 21 O 15.5274 3.1601 0.0 0
M  V30 22 C 16.8223 2.4235 0.0 0
M  V30 23 C 18.1173 3.1838 0.0 0
M  V30 24 C 16.8105 0.9266 0.0 0
M  V30 25 C 19.4122 2.4473 0.0 0
M  V30 26 C 18.1054 0.19 0.0 0
M  V30 27 C 19.4003 0.9504 0.0 0
M  V30 END ATOM
M  V30 BEGIN BOND
M  V30 1 2 1 2
M  V30 2 2 1 3
M  V30 3 1 1 4
M  V30 4 1 1 5
M  V30 5 2 5 6
M  V30 6 1 5 7
M  V30 7 1 6 8
M  V30 8 2 7 9
M  V30 9 2 8 10
M  V30 10 1 10 11
M  V30 11 1 11 12
M  V30 12 1 12 13
M  V30 13 1 13 14
M  V30 14 2 14 15
M  V30 15 1 14 16
M  V30 16 1 16 17
M  V30 17 1 17 18
M  V30 18 2 18 19
M  V30 19 1 18 20
M  V30 20 1 20 21
M  V30 21 1 21 22
M  V30 22 2 22 23
M  V30 23 1 22 24
M  V30 24 1 23 25
M  V30 25 2 24 26
M  V30 26 2 25 27
M  V30 27 1 9 10
M  V30 28 1 26 27
M  V30 END BOND
M  V30 END CTAB
M  END
>  <Structure No>
668

>  <Catalog ID>
Z32377683

>  <MW (desalted)>
391.441

>  <ClogP>
0.516

>  <HBD>
3

>  <TPSA>
127.590

>  <RotBonds>
9

>  <Target>
CHK2

>  <fromRegid>


>  <Similarity>


$$$$
Compound 669
Actelion Java MolfileCreator 2.0

  0  0  0  0  0  0              0 V3000
M  V30 BEGIN CTAB
M  V30 COUNTS 30 32 0 0 0
M  V30 BEGIN ATOM
M  V30 1 F 0.0 0.0 0.0 0
M  V30 2 C 1.4524 0.3188 0.0 0
M  V30 3 F 2.4444 -0.7793 0.0 0
M  V30 4 N 1.9012 1.7595 0.0 0
M  V30 5 C 1.0037 2.9876 0.0 0
M  V30 6 C 3.3182 2.2318 0.0 0
M  V30 7 N 1.8776 4.2157 0.0 0
M  V30 8 C -0.5077 2.9994 0.0 0
M  V30 9 C 3.3064 3.7433 0.0 0
M  V30 10 C 4.6054 1.4997 0.0 0
M  V30 11 C -1.2635 4.3102 0.0 0
M  V30 12 C -1.2635 1.7122 0.0 0
M  V30 13 C 4.5936 4.4991 0.0 0
M  V30 14 C 5.8925 2.2554 0.0 0
M  V30 15 C -2.775 4.322 0.0 0
M  V30 16 C -2.775 1.724 0.0 0
M  V30 17 C 5.8807 3.767 0.0 0
M  V30 18 C -3.5308 3.0348 0.0 0
M  V30 19 N -5.0423 3.0466 0.0 0
M  V30 20 C -5.7981 1.7595 0.0 0
M  V30 21 O -5.0659 0.4723 0.0 0
M  V30 22 C -7.3096 1.7713 0.0 0 CFG=1
M  V30 23 N -8.0654 3.0821 0.0 0
M  V30 24 C -8.0654 0.4841 0.0 0
M  V30 25 C -9.5769 3.0939 0.0 0
M  V30 26 C -7.3332 -0.8029 0.0 0
M  V30 27 O -10.3327 1.8067 0.0 0
M  V30 28 N -10.3327 4.4046 0.0 0
M  V30 29 C -5.8453 -0.7911 0.0 0
M  V30 30 C -8.089 -2.0901 0.0 0
M  V30 END ATOM
M  V30 BEGIN BOND
M  V30 1 1 1 2
M  V30 2 1 2 3
M  V30 3 1 2 4
M  V30 4 1 4 5
M  V30 5 1 4 6
M  V30 6 2 5 7
M  V30 7 1 5 8
M  V30 8 2 6 9
M  V30 9 1 6 10
M  V30 10 2 8 11
M  V30 11 1 8 12
M  V30 12 1 9 13
M  V30 13 2 10 14
M  V30 14 1 11 15
M  V30 15 2 12 16
M  V30 16 2 13 17
M  V30 17 2 15 18
M  V30 18 1 18 19
M  V30 19 1 19 20
M  V30 20 2 20 21
M  V30 21 1 20 22
M  V30 22 1 22 23 CFG=3
M  V30 23 1 22 24
M  V30 24 1 23 25
M  V30 25 1 24 26
M  V30 26 2 25 27
M  V30 27 1 25 28
M  V30 28 1 26 29
M  V30 29 1 26 30
M  V30 30 1 7 9
M  V30 31 1 14 17
M  V30 32 1 16 18
M  V30 END BOND
M  V30 BEGIN COLLECTION
M  V30 MDLV30/STERAC1 ATOMS=(1 22)
M  V30 END COLLECTION
M  V30 END CTAB
M  END
>  <Structure No>
669

>  <Catalog ID>
Z226416968

>  <MW (desalted)>
415.436

>  <ClogP>
3.585

>  <HBD>
3

>  <TPSA>
102.040

>  <RotBonds>
7

>  <Target>
ATM

>  <fromRegid>


>  <Similarity>


$$$$
Compound 670
Actelion Java MolfileCreator 2.0

  0  0  0  0  0  0              0 V3000
M  V30 BEGIN CTAB
M  V30 COUNTS 22 24 0 0 0
M  V30 BEGIN ATOM
M  V30 1 O 0.0 0.0 0.0 0
M  V30 2 C -0.0118 -1.4937 0.0 0
M  V30 3 C -1.3278 -2.2288 0.0 0
M  V30 4 C 1.2803 -2.2288 0.0 0
M  V30 5 C -1.3396 -3.7226 0.0 0
M  V30 6 C -2.6437 -1.47 0.0 0
M  V30 7 C 1.2685 -3.7226 0.0 0
M  V30 8 C 2.5726 -1.47 0.0 0
M  V30 9 O -0.0474 -4.4695 0.0 0
M  V30 10 C -2.6556 -4.4695 0.0 0
M  V30 11 C -3.9597 -2.2051 0.0 0
M  V30 12 C 2.5607 -4.4695 0.0 0
M  V30 13 C -2.6674 -5.9633 0.0 0
M  V30 14 C -3.9716 -3.7107 0.0 0
M  V30 15 C 3.853 -3.7107 0.0 0
M  V30 16 C 2.5489 -5.9633 0.0 0
M  V30 17 O -1.3752 -6.7102 0.0 0
M  V30 18 O -3.9834 -6.7102 0.0 0
M  V30 19 C 5.1453 -4.4576 0.0 0
M  V30 20 C 3.8411 -6.7102 0.0 0
M  V30 21 C -3.9953 -8.204 0.0 0
M  V30 22 C 5.1334 -5.9514 0.0 0
M  V30 END ATOM
M  V30 BEGIN BOND
M  V30 1 2 1 2
M  V30 2 1 2 3
M  V30 3 1 2 4
M  V30 4 2 3 5
M  V30 5 1 3 6
M  V30 6 2 4 7
M  V30 7 1 4 8
M  V30 8 1 5 9
M  V30 9 1 5 10
M  V30 10 2 6 11
M  V30 11 1 7 12
M  V30 12 1 10 13
M  V30 13 2 10 14
M  V30 14 2 12 15
M  V30 15 1 12 16
M  V30 16 2 13 17
M  V30 17 1 13 18
M  V30 18 1 15 19
M  V30 19 2 16 20
M  V30 20 1 18 21
M  V30 21 2 19 22
M  V30 22 1 7 9
M  V30 23 1 11 14
M  V30 24 1 20 22
M  V30 END BOND
M  V30 END CTAB
M  END
>  <Structure No>
670

>  <Catalog ID>
Z16190836

>  <MW (desalted)>
294.301

>  <ClogP>
3.648

>  <HBD>
0

>  <TPSA>
52.600

>  <RotBonds>
3

>  <Target>
Tankyrase-1

>  <fromRegid>
CHEMBL2431806

>  <Similarity>
0.86

$$$$
Compound 671
Actelion Java MolfileCreator 2.0

  0  0  0  0  0  0              0 V3000
M  V30 BEGIN CTAB
M  V30 COUNTS 27 30 0 0 0
M  V30 BEGIN ATOM
M  V30 1 O 0.0 0.0 0.0 0
M  V30 2 C 1.3585 -0.6024 0.0 0
M  V30 3 N 1.6538 -2.0554 0.0 0
M  V30 4 N 2.6461 0.1535 0.0 0
M  V30 5 C 3.1304 -2.1972 0.0 0
M  V30 6 C 0.6379 -3.1541 0.0 0
M  V30 7 C 3.7447 -0.8387 0.0 0 CFG=2
M  V30 8 O 3.8747 -3.4848 0.0 0
M  V30 9 C -0.8387 -2.8351 0.0 0
M  V30 10 C 5.1978 -0.5197 0.0 0
M  V30 11 O -1.8546 -3.9337 0.0 0
M  V30 12 C 5.6467 0.9214 0.0 0
M  V30 13 C -3.3313 -3.6148 0.0 0
M  V30 14 C 7.0642 1.3939 0.0 0
M  V30 15 C 4.7489 2.15 0.0 0
M  V30 16 C -3.8038 -2.1736 0.0 0
M  V30 17 C -4.3472 -4.7134 0.0 0
M  V30 18 C 7.0524 2.906 0.0 0
M  V30 19 C 8.3519 0.6497 0.0 0
M  V30 20 N 5.623 3.3785 0.0 0
M  V30 21 C -5.2805 -1.8546 0.0 0
M  V30 22 C -5.8239 -4.3945 0.0 0
M  V30 23 C 8.3401 3.6739 0.0 0
M  V30 24 C 9.6395 1.4175 0.0 0
M  V30 25 C -6.2964 -2.9532 0.0 0
M  V30 26 C 9.6277 2.9296 0.0 0
M  V30 27 C -7.773 -2.6343 0.0 0
M  V30 END ATOM
M  V30 BEGIN BOND
M  V30 1 2 1 2
M  V30 2 1 2 3
M  V30 3 1 2 4
M  V30 4 1 3 5
M  V30 5 1 3 6
M  V30 6 1 4 7
M  V30 7 2 5 8
M  V30 8 1 6 9
M  V30 9 1 7 10 CFG=1
M  V30 10 1 9 11
M  V30 11 1 10 12
M  V30 12 1 11 13
M  V30 13 1 12 14
M  V30 14 2 12 15
M  V30 15 2 13 16
M  V30 16 1 13 17
M  V30 17 2 14 18
M  V30 18 1 14 19
M  V30 19 1 15 20
M  V30 20 1 16 21
M  V30 21 2 17 22
M  V30 22 1 18 23
M  V30 23 2 19 24
M  V30 24 2 21 25
M  V30 25 2 23 26
M  V30 26 1 25 27
M  V30 27 1 5 7
M  V30 28 1 18 20
M  V30 29 1 22 25
M  V30 30 1 24 26
M  V30 END BOND
M  V30 BEGIN COLLECTION
M  V30 MDLV30/STERAC1 ATOMS=(1 7)
M  V30 END COLLECTION
M  V30 END CTAB
M  END
>  <Structure No>
671

>  <Catalog ID>
Z16202335

>  <MW (desalted)>
363.410

>  <ClogP>
3.423

>  <HBD>
2

>  <TPSA>
74.430

>  <RotBonds>
6

>  <Target>
CHK1

>  <fromRegid>


>  <Similarity>


$$$$
Compound 672
Actelion Java MolfileCreator 2.0

  0  0  0  0  0  0              0 V3000
M  V30 BEGIN CTAB
M  V30 COUNTS 24 25 0 0 0
M  V30 BEGIN ATOM
M  V30 1 O 0.0 0.0 0.0 0
M  V30 2 C -0.7543 -1.2847 0.0 0
M  V30 3 N -0.0235 -2.5695 0.0 0
M  V30 4 N -2.263 -1.2729 0.0 0
M  V30 5 C 1.4615 -2.5577 0.0 0
M  V30 6 C -3.0173 0.0353 0.0 0
M  V30 7 C 2.1923 -3.8424 0.0 0
M  V30 8 C 2.1923 -1.2493 0.0 0
M  V30 9 C -4.526 0.0471 0.0 0
M  V30 10 O 1.4379 -5.1272 0.0 0
M  V30 11 N 3.6774 -3.8306 0.0 0
M  V30 12 O 1.4379 0.0589 0.0 0
M  V30 13 N 3.6774 -1.2376 0.0 0
M  V30 14 C -5.2804 1.3554 0.0 0
M  V30 15 C -5.2804 -1.2376 0.0 0
M  V30 16 C -6.7891 1.3672 0.0 0
M  V30 17 C -4.5378 2.6637 0.0 0
M  V30 18 C -6.7891 -1.2258 0.0 0
M  V30 19 C -7.5552 0.0825 0.0 0
M  V30 20 N -5.2922 3.9721 0.0 0
M  V30 21 N -4.6911 5.3511 0.0 0
M  V30 22 C -6.7891 4.1371 0.0 0
M  V30 23 C -5.8108 6.3648 0.0 0
M  V30 24 N -7.1073 5.6104 0.0 0
M  V30 END ATOM
M  V30 BEGIN BOND
M  V30 1 2 1 2
M  V30 2 1 2 3
M  V30 3 1 2 4
M  V30 4 1 3 5
M  V30 5 1 4 6
M  V30 6 1 5 7
M  V30 7 1 5 8
M  V30 8 1 6 9
M  V30 9 2 7 10
M  V30 10 1 7 11
M  V30 11 2 8 12
M  V30 12 1 8 13
M  V30 13 2 9 14
M  V30 14 1 9 15
M  V30 15 1 14 16
M  V30 16 1 14 17
M  V30 17 2 15 18
M  V30 18 2 16 19
M  V30 19 1 17 20
M  V30 20 1 20 21
M  V30 21 1 20 22
M  V30 22 2 21 23
M  V30 23 2 22 24
M  V30 24 1 18 19
M  V30 25 1 23 24
M  V30 END BOND
M  V30 END CTAB
M  END
>  <Structure No>
672

>  <Catalog ID>
Z370006730

>  <MW (desalted)>
331.330

>  <ClogP>
-2.107

>  <HBD>
4

>  <TPSA>
158.020

>  <RotBonds>
7

>  <Target>
CHK2

>  <fromRegid>


>  <Similarity>


$$$$
Compound 673
Actelion Java MolfileCreator 2.0

  0  0  0  0  0  0              0 V3000
M  V30 BEGIN CTAB
M  V30 COUNTS 23 25 0 0 0
M  V30 BEGIN ATOM
M  V30 1 Cl 0.0 0.0 0.0 0
M  V30 2 C 1.2939 0.7716 0.0 0
M  V30 3 C 1.2821 2.2911 0.0 0
M  V30 4 C 2.5879 0.0237 0.0 0
M  V30 5 C 2.5761 3.0509 0.0 0
M  V30 6 C 3.8819 0.7953 0.0 0
M  V30 7 C 3.8701 2.3149 0.0 0
M  V30 8 N 5.164 3.0747 0.0 0
M  V30 9 C 6.458 2.3386 0.0 0
M  V30 10 O 6.4462 0.8428 0.0 0
M  V30 11 N 7.752 3.0984 0.0 0
M  V30 12 C 9.046 2.3624 0.0 0
M  V30 13 C 10.34 3.1221 0.0 0
M  V30 14 C 11.634 2.3861 0.0 0
M  V30 15 C 10.3281 4.6417 0.0 0
M  V30 16 C 12.928 3.1459 0.0 0
M  V30 17 C 11.6221 5.4015 0.0 0
M  V30 18 N 12.9161 4.6654 0.0 0
M  V30 19 N 14.222 2.4099 0.0 0
M  V30 20 N 14.3644 0.9259 0.0 0
M  V30 21 C 15.5872 3.039 0.0 0
M  V30 22 C 15.8246 0.6291 0.0 0
M  V30 23 C 16.5844 1.935 0.0 0
M  V30 END ATOM
M  V30 BEGIN BOND
M  V30 1 1 1 2
M  V30 2 2 2 3
M  V30 3 1 2 4
M  V30 4 1 3 5
M  V30 5 2 4 6
M  V30 6 2 5 7
M  V30 7 1 7 8
M  V30 8 1 8 9
M  V30 9 2 9 10
M  V30 10 1 9 11
M  V30 11 1 11 12
M  V30 12 1 12 13
M  V30 13 2 13 14
M  V30 14 1 13 15
M  V30 15 1 14 16
M  V30 16 2 15 17
M  V30 17 2 16 18
M  V30 18 1 16 19
M  V30 19 1 19 20
M  V30 20 1 19 21
M  V30 21 2 20 22
M  V30 22 2 21 23
M  V30 23 1 6 7
M  V30 24 1 17 18
M  V30 25 1 22 23
M  V30 END BOND
M  V30 END CTAB
M  END
>  <Structure No>
673

>  <Catalog ID>
Z362011076

>  <MW (desalted)>
327.768

>  <ClogP>
2.860

>  <HBD>
2

>  <TPSA>
71.840

>  <RotBonds>
4

>  <Target>
DNA_pk

>  <fromRegid>


>  <Similarity>


$$$$
Compound 674
Actelion Java MolfileCreator 2.0

  0  0  0  0  0  0              0 V3000
M  V30 BEGIN CTAB
M  V30 COUNTS 25 28 0 0 0
M  V30 BEGIN ATOM
M  V30 1 O 0.0 0.0 0.0 0
M  V30 2 C 1.495 0.0118 0.0 0
M  V30 3 N 2.2307 1.3289 0.0 0
M  V30 4 C 2.2307 -1.2814 0.0 0
M  V30 5 C 3.7258 1.3408 0.0 0
M  V30 6 C 3.7258 -1.2696 0.0 0
M  V30 7 C 1.4713 -2.5748 0.0 0
M  V30 8 N 4.4614 0.0474 0.0 0
M  V30 9 C 4.4614 2.6579 0.0 0
M  V30 10 C 4.4614 -2.5629 0.0 0
M  V30 11 C 2.207 -3.8682 0.0 0
M  V30 12 N 5.9565 2.6697 0.0 0
M  V30 13 C 3.702 -3.8563 0.0 0
M  V30 14 C 6.704 3.9868 0.0 0
M  V30 15 C 6.704 1.3764 0.0 0
M  V30 16 O 5.9328 5.3039 0.0 0
M  V30 17 C 8.1991 3.9987 0.0 0
M  V30 18 N 9.0772 2.7884 0.0 0
M  V30 19 C 9.0772 5.2327 0.0 0
M  V30 20 C 10.5011 3.263 0.0 0
M  V30 21 N 10.5011 4.7818 0.0 0
M  V30 22 C 11.7944 2.5273 0.0 0
M  V30 23 C 11.7944 5.5412 0.0 0
M  V30 24 C 13.0878 3.2867 0.0 0
M  V30 25 C 13.0878 4.8055 0.0 0
M  V30 END ATOM
M  V30 BEGIN BOND
M  V30 1 2 1 2
M  V30 2 1 2 3
M  V30 3 1 2 4
M  V30 4 1 3 5
M  V30 5 2 4 6
M  V30 6 1 4 7
M  V30 7 2 5 8
M  V30 8 1 5 9
M  V30 9 1 6 10
M  V30 10 2 7 11
M  V30 11 1 9 12
M  V30 12 2 10 13
M  V30 13 1 12 14
M  V30 14 1 12 15
M  V30 15 2 14 16
M  V30 16 1 14 17
M  V30 17 1 17 18
M  V30 18 2 17 19
M  V30 19 2 18 20
M  V30 20 1 19 21
M  V30 21 1 20 22
M  V30 22 1 21 23
M  V30 23 2 22 24
M  V30 24 2 23 25
M  V30 25 1 6 8
M  V30 26 1 11 13
M  V30 27 1 20 21
M  V30 28 1 24 25
M  V30 END BOND
M  V30 END CTAB
M  END
>  <Structure No>
674

>  <Catalog ID>
Z30085377

>  <MW (desalted)>
333.344

>  <ClogP>
0.566

>  <HBD>
1

>  <TPSA>
79.070

>  <RotBonds>
3

>  <Target>
Tankyrase1

>  <fromRegid>


>  <Similarity>


$$$$
Compound 675
Actelion Java MolfileCreator 2.0

  0  0  0  0  0  0              0 V3000
M  V30 BEGIN CTAB
M  V30 COUNTS 22 24 0 0 0
M  V30 BEGIN ATOM
M  V30 1 S 0.0 0.0 0.0 0
M  V30 2 C 1.4234 -0.4507 0.0 0
M  V30 3 C -0.9015 -1.2099 0.0 0
M  V30 4 N 2.7163 0.3202 0.0 0
M  V30 5 C 1.4115 -1.9453 0.0 0
M  V30 6 C -0.0237 -2.4198 0.0 0
M  V30 7 C -2.4198 -1.198 0.0 0
M  V30 8 C 4.0093 -0.4151 0.0 0
M  V30 9 C 2.7045 -2.6926 0.0 0
M  V30 10 C -0.4981 -3.8432 0.0 0
M  V30 11 S 5.3022 0.3558 0.0 0
M  V30 12 N 3.9974 -1.9097 0.0 0
M  V30 13 O 2.6926 -4.1872 0.0 0
M  V30 14 C 6.5952 -0.3795 0.0 0
M  V30 15 C 7.8881 0.3914 0.0 0
M  V30 16 O 7.8763 1.9097 0.0 0
M  V30 17 N 9.1811 -0.3439 0.0 0
M  V30 18 C 10.474 0.427 0.0 0
M  V30 19 C 9.1692 -1.8385 0.0 0
M  V30 20 C 11.767 -0.3084 0.0 0
M  V30 21 C 10.4621 -2.5858 0.0 0
M  V30 22 O 11.7551 -1.803 0.0 0
M  V30 END ATOM
M  V30 BEGIN BOND
M  V30 1 1 1 2
M  V30 2 1 1 3
M  V30 3 1 2 4
M  V30 4 2 2 5
M  V30 5 2 3 6
M  V30 6 1 3 7
M  V30 7 2 4 8
M  V30 8 1 5 9
M  V30 9 1 6 10
M  V30 10 1 8 11
M  V30 11 1 8 12
M  V30 12 2 9 13
M  V30 13 1 11 14
M  V30 14 1 14 15
M  V30 15 2 15 16
M  V30 16 1 15 17
M  V30 17 1 17 18
M  V30 18 1 17 19
M  V30 19 1 18 20
M  V30 20 1 19 21
M  V30 21 1 20 22
M  V30 22 1 5 6
M  V30 23 1 9 12
M  V30 24 1 21 22
M  V30 END BOND
M  V30 END CTAB
M  END
>  <Structure No>
675

>  <Catalog ID>
Z16228019

>  <MW (desalted)>
339.433

>  <ClogP>
1.357

>  <HBD>
1

>  <TPSA>
71.000

>  <RotBonds>
3

>  <Target>
Poly [ADP-ribose] polymerase-1

>  <fromRegid>
CHEMBL2440886

>  <Similarity>
0.94

$$$$
Compound 676
Actelion Java MolfileCreator 2.0

  0  0  0  0  0  0              0 V3000
M  V30 BEGIN CTAB
M  V30 COUNTS 26 29 0 0 0
M  V30 BEGIN ATOM
M  V30 1 S 0.0 0.0 0.0 0
M  V30 2 C -0.0354 1.5106 0.0 0
M  V30 3 C 1.2982 -0.7081 0.0 0
M  V30 4 N -1.2746 2.384 0.0 0
M  V30 5 N 1.1447 2.4312 0.0 0
M  V30 6 C 1.3218 -2.1951 0.0 0
M  V30 7 N -0.8497 3.8356 0.0 0
M  V30 8 C 0.6373 3.8592 0.0 0
M  V30 9 C 2.6318 2.4784 0.0 0
M  V30 10 O 2.62 -2.9033 0.0 0
M  V30 11 N 0.0236 -2.9623 0.0 0
M  V30 12 N 1.8175 4.7798 0.0 0
M  V30 13 C 3.0567 3.93 0.0 0
M  V30 14 C 3.6468 1.3926 0.0 0
M  V30 15 C -1.2982 -2.2305 0.0 0
M  V30 16 C 4.5083 4.2841 0.0 0
M  V30 17 C 5.0984 1.7467 0.0 0
M  V30 18 C -2.5964 -2.9977 0.0 0
M  V30 19 C -1.3454 -0.7199 0.0 0
M  V30 20 C 5.5233 3.1983 0.0 0
M  V30 21 C -3.9182 -2.2659 0.0 0
M  V30 22 C -2.5728 -4.4847 0.0 0
M  V30 23 C -2.6672 0.0118 0.0 0
M  V30 24 C -3.9536 -0.7553 0.0 0
M  V30 25 C -3.871 -5.2519 0.0 0
M  V30 26 C -1.2746 -5.1929 0.0 0
M  V30 END ATOM
M  V30 BEGIN BOND
M  V30 1 1 1 2
M  V30 2 1 1 3
M  V30 3 2 2 4
M  V30 4 1 2 5
M  V30 5 1 3 6
M  V30 6 1 4 7
M  V30 7 1 5 8
M  V30 8 1 5 9
M  V30 9 2 6 10
M  V30 10 1 6 11
M  V30 11 1 8 12
M  V30 12 2 9 13
M  V30 13 1 9 14
M  V30 14 1 11 15
M  V30 15 1 13 16
M  V30 16 2 14 17
M  V30 17 2 15 18
M  V30 18 1 15 19
M  V30 19 2 16 20
M  V30 20 1 18 21
M  V30 21 1 18 22
M  V30 22 2 19 23
M  V30 23 2 21 24
M  V30 24 1 22 25
M  V30 25 1 22 26
M  V30 26 2 7 8
M  V30 27 1 12 13
M  V30 28 1 17 20
M  V30 29 1 23 24
M  V30 END BOND
M  V30 END CTAB
M  END
>  <Structure No>
676

>  <Catalog ID>
Z16226182

>  <MW (desalted)>
365.452

>  <ClogP>
3.100

>  <HBD>
2

>  <TPSA>
75.080

>  <RotBonds>
5

>  <Target>
ATM

>  <fromRegid>


>  <Similarity>


$$$$
Compound 677
Actelion Java MolfileCreator 2.0

  0  0  0  0  0  0              0 V3000
M  V30 BEGIN CTAB
M  V30 COUNTS 24 27 0 0 0
M  V30 BEGIN ATOM
M  V30 1 Cl 0.0 0.0 0.0 0
M  V30 2 C 0.7375 -1.2966 0.0 0
M  V30 3 C 2.2364 -1.2847 0.0 0
M  V30 4 C -0.0237 -2.5933 0.0 0
M  V30 5 C 2.9859 -2.5814 0.0 0
M  V30 6 C 0.7137 -3.89 0.0 0
M  V30 7 N 4.4491 -2.8788 0.0 0
M  V30 8 C 2.2126 -3.8781 0.0 0
M  V30 9 C 4.5919 -4.3658 0.0 0
M  V30 10 N 3.2119 -4.9844 0.0 0
M  V30 11 S 5.8885 -5.1034 0.0 0
M  V30 12 C 7.1852 -4.342 0.0 0 CFG=2
M  V30 13 C 8.4819 -5.0796 0.0 0
M  V30 14 C 7.1733 -2.8193 0.0 0
M  V30 15 N 9.7786 -4.3182 0.0 0
M  V30 16 N 8.47 -6.5785 0.0 0
M  V30 17 C 11.0753 -5.0558 0.0 0
M  V30 18 C 9.7667 -7.328 0.0 0
M  V30 19 C 11.0634 -6.5547 0.0 0
M  V30 20 C 12.3719 -4.2945 0.0 0
M  V30 21 O 9.7548 -8.8269 0.0 0
M  V30 22 C 12.36 -7.3042 0.0 0
M  V30 23 C 13.6686 -5.032 0.0 0
M  V30 24 C 13.6567 -6.5428 0.0 0
M  V30 END ATOM
M  V30 BEGIN BOND
M  V30 1 1 1 2
M  V30 2 2 2 3
M  V30 3 1 2 4
M  V30 4 1 3 5
M  V30 5 2 4 6
M  V30 6 1 5 7
M  V30 7 2 5 8
M  V30 8 1 7 9
M  V30 9 1 8 10
M  V30 10 1 9 11
M  V30 11 1 12 11 CFG=1
M  V30 12 1 12 13
M  V30 13 1 12 14
M  V30 14 2 13 15
M  V30 15 1 13 16
M  V30 16 1 15 17
M  V30 17 1 16 18
M  V30 18 2 17 19
M  V30 19 1 17 20
M  V30 20 2 18 21
M  V30 21 1 19 22
M  V30 22 2 20 23
M  V30 23 2 22 24
M  V30 24 1 6 8
M  V30 25 2 9 10
M  V30 26 1 18 19
M  V30 27 1 23 24
M  V30 END BOND
M  V30 BEGIN COLLECTION
M  V30 MDLV30/STERAC1 ATOMS=(1 12)
M  V30 END COLLECTION
M  V30 END CTAB
M  END
>  <Structure No>
677

>  <Catalog ID>
Z16258135

>  <MW (desalted)>
356.829

>  <ClogP>
3.536

>  <HBD>
2

>  <TPSA>
70.140

>  <RotBonds>
3

>  <Target>
parp10

>  <fromRegid>


>  <Similarity>


$$$$
Compound 678
Actelion Java MolfileCreator 2.0

  0  0  0  0  0  0              0 V3000
M  V30 BEGIN CTAB
M  V30 COUNTS 26 29 0 0 0
M  V30 BEGIN ATOM
M  V30 1 S 0.0 0.0 0.0 0
M  V30 2 C -1.3113 0.756 0.0 0
M  V30 3 C -0.0118 -1.4885 0.0 0
M  V30 4 N -2.6935 0.1535 0.0 0
M  V30 5 N -1.4767 2.2564 0.0 0
M  V30 6 C 1.2758 -2.2209 0.0 0
M  V30 7 N -3.7095 1.2758 0.0 0
M  V30 8 C -2.9534 2.5753 0.0 0
M  V30 9 C -0.378 3.2724 0.0 0
M  V30 10 N 2.5635 -1.4649 0.0 0
M  V30 11 N 1.264 -3.7095 0.0 0
M  V30 12 C -3.5795 3.9575 0.0 0
M  V30 13 C -0.697 4.7491 0.0 0
M  V30 14 C 3.8512 -2.1973 0.0 0
M  V30 15 C 2.5517 -4.4537 0.0 0
M  V30 16 C -5.0799 4.1229 0.0 0
M  V30 17 C -2.7053 5.1862 0.0 0
M  V30 18 C 3.8394 -3.6858 0.0 0
M  V30 19 C 5.1389 -1.4412 0.0 0
M  V30 20 O 2.5399 -5.9423 0.0 0
M  V30 21 C -5.706 5.5051 0.0 0
M  V30 22 C -3.3314 6.5684 0.0 0
M  V30 23 C 5.1271 -4.4301 0.0 0
M  V30 24 C 6.4266 -2.1737 0.0 0
M  V30 25 C -4.8318 6.7338 0.0 0
M  V30 26 C 6.4148 -3.6622 0.0 0
M  V30 END ATOM
M  V30 BEGIN BOND
M  V30 1 1 1 2
M  V30 2 1 1 3
M  V30 3 2 2 4
M  V30 4 1 2 5
M  V30 5 1 3 6
M  V30 6 1 4 7
M  V30 7 1 5 8
M  V30 8 1 5 9
M  V30 9 2 6 10
M  V30 10 1 6 11
M  V30 11 1 8 12
M  V30 12 1 9 13
M  V30 13 1 10 14
M  V30 14 1 11 15
M  V30 15 2 12 16
M  V30 16 1 12 17
M  V30 17 2 14 18
M  V30 18 1 14 19
M  V30 19 2 15 20
M  V30 20 1 16 21
M  V30 21 2 17 22
M  V30 22 1 18 23
M  V30 23 2 19 24
M  V30 24 2 21 25
M  V30 25 2 23 26
M  V30 26 2 7 8
M  V30 27 1 15 18
M  V30 28 1 22 25
M  V30 29 1 24 26
M  V30 END BOND
M  V30 END CTAB
M  END
>  <Structure No>
678

>  <Catalog ID>
Z16260377

>  <MW (desalted)>
363.436

>  <ClogP>
2.107

>  <HBD>
1

>  <TPSA>
72.170

>  <RotBonds>
5

>  <Target>
parp10

>  <fromRegid>


>  <Similarity>


$$$$
Compound 679
Actelion Java MolfileCreator 2.0

  0  0  0  0  0  0              0 V3000
M  V30 BEGIN CTAB
M  V30 COUNTS 28 30 0 0 0
M  V30 BEGIN ATOM
M  V30 1 S 0.0 0.0 0.0 0
M  V30 2 C -1.3139 0.7576 0.0 0
M  V30 3 C 1.2903 0.7576 0.0 0
M  V30 4 C -2.6279 0.0236 0.0 0
M  V30 5 C -1.3258 2.2728 0.0 0
M  V30 6 C 2.5806 0.0236 0.0 0
M  V30 7 C -3.9419 0.7812 0.0 0
M  V30 8 C -2.6397 3.0304 0.0 0
M  V30 9 N 3.8709 0.7812 0.0 0
M  V30 10 C -3.9537 2.2964 0.0 0
M  V30 11 C -5.2559 0.0473 0.0 0
M  V30 12 C 5.1612 0.0473 0.0 0
M  V30 13 C -5.2677 3.0541 0.0 0
M  V30 14 O 5.1493 -1.4441 0.0 0
M  V30 15 N 6.4515 0.8049 0.0 0
M  V30 16 C 7.7418 0.071 0.0 0
M  V30 17 C 9.0321 0.8286 0.0 0
M  V30 18 C 10.3224 0.0947 0.0 0
M  V30 19 C 9.0202 2.3438 0.0 0
M  V30 20 N 11.6127 0.8523 0.0 0
M  V30 21 N 10.3105 -1.3968 0.0 0
M  V30 22 C 10.3105 3.1014 0.0 0
M  V30 23 C 11.6008 2.3675 0.0 0
M  V30 24 C 11.6008 -2.1307 0.0 0
M  V30 25 C 8.9965 -2.1307 0.0 0
M  V30 26 C 11.589 -3.6223 0.0 0
M  V30 27 C 8.9847 -3.6223 0.0 0
M  V30 28 O 10.275 -4.368 0.0 0
M  V30 END ATOM
M  V30 BEGIN BOND
M  V30 1 1 1 2
M  V30 2 1 1 3
M  V30 3 2 2 4
M  V30 4 1 2 5
M  V30 5 1 3 6
M  V30 6 1 4 7
M  V30 7 2 5 8
M  V30 8 1 6 9
M  V30 9 2 7 10
M  V30 10 1 7 11
M  V30 11 1 9 12
M  V30 12 1 10 13
M  V30 13 2 12 14
M  V30 14 1 12 15
M  V30 15 1 15 16
M  V30 16 1 16 17
M  V30 17 2 17 18
M  V30 18 1 17 19
M  V30 19 1 18 20
M  V30 20 1 18 21
M  V30 21 2 19 22
M  V30 22 2 20 23
M  V30 23 1 21 24
M  V30 24 1 21 25
M  V30 25 1 24 26
M  V30 26 1 25 27
M  V30 27 1 26 28
M  V30 28 1 8 10
M  V30 29 1 22 23
M  V30 30 1 27 28
M  V30 END BOND
M  V30 END CTAB
M  END
>  <Structure No>
679

>  <Catalog ID>
Z336510856

>  <MW (desalted)>
400.538

>  <ClogP>
3.190

>  <HBD>
2

>  <TPSA>
66.490

>  <RotBonds>
7

>  <Target>
ATM

>  <fromRegid>


>  <Similarity>


$$$$
Compound 680
Actelion Java MolfileCreator 2.0

  0  0  0  0  0  0              0 V3000
M  V30 BEGIN CTAB
M  V30 COUNTS 34 38 0 0 0
M  V30 BEGIN ATOM
M  V30 1 S 0.0 0.0 0.0 0
M  V30 2 C 1.29 -0.7337 0.0 0
M  V30 3 C -1.3136 -0.7337 0.0 0
M  V30 4 N 2.58 0.0236 0.0 0
M  V30 5 N 1.2781 -2.2249 0.0 0
M  V30 6 C -2.6273 0.0236 0.0 0
M  V30 7 C 3.87 -0.7101 0.0 0
M  V30 8 C 2.5682 -2.9705 0.0 0
M  V30 9 C -0.0355 -2.9705 0.0 0
M  V30 10 O -2.6392 1.5385 0.0 0
M  V30 11 N -3.941 -0.7101 0.0 0
M  V30 12 C 3.8582 -2.2013 0.0 0
M  V30 13 C 5.16 0.0473 0.0 0
M  V30 14 O 2.5563 -4.4618 0.0 0
M  V30 15 C -0.0473 -4.4618 0.0 0
M  V30 16 C -5.2547 0.0473 0.0 0
M  V30 17 C -3.9529 -2.2013 0.0 0
M  V30 18 C 5.1482 -2.9469 0.0 0
M  V30 19 C 6.45 -0.6864 0.0 0
M  V30 20 C -1.361 -5.2074 0.0 0
M  V30 21 C 1.2426 -5.2074 0.0 0
M  V30 22 C -6.5684 -0.6864 0.0 0
M  V30 23 C -5.2665 1.5622 0.0 0
M  V30 24 C -5.2665 -2.9469 0.0 0
M  V30 25 C 6.4382 -2.1894 0.0 0
M  V30 26 C -1.3728 -6.6986 0.0 0
M  V30 27 C 1.2308 -6.6986 0.0 0
M  V30 28 N -6.5802 -2.1776 0.0 0
M  V30 29 C -7.8821 0.071 0.0 0
M  V30 30 C -6.5802 2.3196 0.0 0
M  V30 31 O -5.2784 -4.4381 0.0 0
M  V30 32 C -0.0828 -7.4324 0.0 0
M  V30 33 C -7.8939 1.5858 0.0 0
M  V30 34 F -0.0946 -8.9236 0.0 0
M  V30 END ATOM
M  V30 BEGIN BOND
M  V30 1 1 1 2
M  V30 2 1 1 3
M  V30 3 2 2 4
M  V30 4 1 2 5
M  V30 5 1 3 6
M  V30 6 1 4 7
M  V30 7 1 5 8
M  V30 8 1 5 9
M  V30 9 2 6 10
M  V30 10 1 6 11
M  V30 11 2 7 12
M  V30 12 1 7 13
M  V30 13 2 8 14
M  V30 14 1 9 15
M  V30 15 1 11 16
M  V30 16 1 11 17
M  V30 17 1 12 18
M  V30 18 2 13 19
M  V30 19 2 15 20
M  V30 20 1 15 21
M  V30 21 2 16 22
M  V30 22 1 16 23
M  V30 23 1 17 24
M  V30 24 2 18 25
M  V30 25 1 20 26
M  V30 26 2 21 27
M  V30 27 1 22 28
M  V30 28 1 22 29
M  V30 29 2 23 30
M  V30 30 2 24 31
M  V30 31 2 26 32
M  V30 32 2 29 33
M  V30 33 1 32 34
M  V30 34 1 8 12
M  V30 35 1 19 25
M  V30 36 1 24 28
M  V30 37 1 27 32
M  V30 38 1 30 33
M  V30 END BOND
M  V30 END CTAB
M  END
>  <Structure No>
680

>  <Catalog ID>
Z16276786

>  <MW (desalted)>
474.507

>  <ClogP>
3.646

>  <HBD>
1

>  <TPSA>
82.080

>  <RotBonds>
5

>  <Target>
Poly [ADP-ribose] polymerase-1

>  <fromRegid>
CHEMBL3105415

>  <Similarity>
0.91

$$$$
Compound 681
Actelion Java MolfileCreator 2.0

  0  0  0  0  0  0              0 V3000
M  V30 BEGIN CTAB
M  V30 COUNTS 30 32 0 0 0
M  V30 BEGIN ATOM
M  V30 1 O 0.0 0.0 0.0 0
M  V30 2 C 1.2884 -0.7446 0.0 0
M  V30 3 N 1.2766 -2.234 0.0 0
M  V30 4 C 2.5768 0.0236 0.0 0
M  V30 5 C 2.565 -2.9669 0.0 0
M  V30 6 C -0.0354 -2.9669 0.0 0
M  V30 7 O 3.8652 -0.721 0.0 0
M  V30 8 C 3.8534 -2.2104 0.0 0
M  V30 9 C 2.5532 -4.4563 0.0 0
M  V30 10 C -1.3475 -2.2104 0.0 0
M  V30 11 C 5.1418 -2.9432 0.0 0
M  V30 12 C 3.8416 -5.1891 0.0 0
M  V30 13 C -2.6595 -2.9432 0.0 0
M  V30 14 C 5.13 -4.4326 0.0 0
M  V30 15 O -2.6714 -4.4326 0.0 0
M  V30 16 N -3.9716 -2.1867 0.0 0
M  V30 17 C -5.2837 -2.9196 0.0 0
M  V30 18 C -6.5958 -2.1631 0.0 0
M  V30 19 C -7.9078 -2.896 0.0 0
M  V30 20 C -6.6076 -0.6501 0.0 0
M  V30 21 C -9.2199 -2.1394 0.0 0
M  V30 22 C -7.9196 0.1182 0.0 0
M  V30 23 C -10.532 -2.8723 0.0 0
M  V30 24 C -9.2317 -0.6264 0.0 0
M  V30 25 O -10.5438 -4.3617 0.0 0
M  V30 26 N -11.844 -2.1158 0.0 0
M  V30 27 C -13.1561 -2.8487 0.0 0 CFG=2
M  V30 28 C -14.4682 -2.0922 0.0 0
M  V30 29 C -13.1679 -4.338 0.0 0
M  V30 30 C -15.7802 -2.825 0.0 0
M  V30 END ATOM
M  V30 BEGIN BOND
M  V30 1 2 1 2
M  V30 2 1 2 3
M  V30 3 1 2 4
M  V30 4 1 3 5
M  V30 5 1 3 6
M  V30 6 1 4 7
M  V30 7 2 5 8
M  V30 8 1 5 9
M  V30 9 1 6 10
M  V30 10 1 8 11
M  V30 11 2 9 12
M  V30 12 1 10 13
M  V30 13 2 11 14
M  V30 14 2 13 15
M  V30 15 1 13 16
M  V30 16 1 16 17
M  V30 17 1 17 18
M  V30 18 2 18 19
M  V30 19 1 18 20
M  V30 20 1 19 21
M  V30 21 2 20 22
M  V30 22 1 21 23
M  V30 23 2 21 24
M  V30 24 2 23 25
M  V30 25 1 23 26
M  V30 26 1 27 26 CFG=1
M  V30 27 1 27 28
M  V30 28 1 27 29
M  V30 29 1 28 30
M  V30 30 1 7 8
M  V30 31 1 12 14
M  V30 32 1 22 24
M  V30 END BOND
M  V30 BEGIN COLLECTION
M  V30 MDLV30/STERAC1 ATOMS=(1 27)
M  V30 END COLLECTION
M  V30 END CTAB
M  END
>  <Structure No>
681

>  <Catalog ID>
Z437399410

>  <MW (desalted)>
409.478

>  <ClogP>
2.434

>  <HBD>
2

>  <TPSA>
87.740

>  <RotBonds>
8

>  <Target>
Tankyrase1

>  <fromRegid>


>  <Similarity>


$$$$
Compound 682
Actelion Java MolfileCreator 2.0

  0  0  0  0  0  0              0 V3000
M  V30 BEGIN CTAB
M  V30 COUNTS 30 32 0 0 0
M  V30 BEGIN ATOM
M  V30 1 O 0.0 0.0 0.0 0
M  V30 2 C 1.2877 -0.7443 0.0 0
M  V30 3 N 1.2759 -2.2329 0.0 0
M  V30 4 C 2.5755 0.0236 0.0 0
M  V30 5 C 2.5637 -2.9654 0.0 0
M  V30 6 C -0.0354 -2.9654 0.0 0
M  V30 7 O 3.8633 -0.7206 0.0 0
M  V30 8 C 3.8515 -2.2093 0.0 0
M  V30 9 C 2.5519 -4.4541 0.0 0
M  V30 10 C -1.3468 -2.2093 0.0 0
M  V30 11 C 5.1393 -2.9418 0.0 0
M  V30 12 C 3.8397 -5.1866 0.0 0
M  V30 13 C -2.6582 -2.9418 0.0 0
M  V30 14 C 5.1275 -4.4304 0.0 0
M  V30 15 O -2.6701 -4.4304 0.0 0
M  V30 16 N -3.9697 -2.1857 0.0 0
M  V30 17 C -5.2811 -2.9182 0.0 0
M  V30 18 C -6.5925 -2.162 0.0 0
M  V30 19 C -7.9039 -2.8945 0.0 0
M  V30 20 C -6.6043 -0.6498 0.0 0
M  V30 21 C -9.2153 -2.1384 0.0 0
M  V30 22 C -7.9157 0.1181 0.0 0
M  V30 23 N -10.5268 -2.8709 0.0 0
M  V30 24 C -9.2272 -0.6261 0.0 0
M  V30 25 C -11.8382 -2.1148 0.0 0
M  V30 26 O -11.85 -0.6025 0.0 0
M  V30 27 C -13.1496 -2.8473 0.0 0 CFG=2
M  V30 28 C -14.461 -2.0911 0.0 0
M  V30 29 C -13.1614 -4.3359 0.0 0
M  V30 30 C -15.7725 -2.8236 0.0 0
M  V30 END ATOM
M  V30 BEGIN BOND
M  V30 1 2 1 2
M  V30 2 1 2 3
M  V30 3 1 2 4
M  V30 4 1 3 5
M  V30 5 1 3 6
M  V30 6 1 4 7
M  V30 7 2 5 8
M  V30 8 1 5 9
M  V30 9 1 6 10
M  V30 10 1 8 11
M  V30 11 2 9 12
M  V30 12 1 10 13
M  V30 13 2 11 14
M  V30 14 2 13 15
M  V30 15 1 13 16
M  V30 16 1 16 17
M  V30 17 1 17 18
M  V30 18 2 18 19
M  V30 19 1 18 20
M  V30 20 1 19 21
M  V30 21 2 20 22
M  V30 22 1 21 23
M  V30 23 2 21 24
M  V30 24 1 23 25
M  V30 25 2 25 26
M  V30 26 1 25 27
M  V30 27 1 27 28
M  V30 28 1 27 29 CFG=1
M  V30 29 1 28 30
M  V30 30 1 7 8
M  V30 31 1 12 14
M  V30 32 1 22 24
M  V30 END BOND
M  V30 BEGIN COLLECTION
M  V30 MDLV30/STERAC1 ATOMS=(1 27)
M  V30 END COLLECTION
M  V30 END CTAB
M  END
>  <Structure No>
682

>  <Catalog ID>
Z437386504

>  <MW (desalted)>
409.478

>  <ClogP>
2.734

>  <HBD>
2

>  <TPSA>
87.740

>  <RotBonds>
8

>  <Target>
Tankyrase1

>  <fromRegid>


>  <Similarity>


$$$$
Compound 683
Actelion Java MolfileCreator 2.0

  0  0  0  0  0  0              0 V3000
M  V30 BEGIN CTAB
M  V30 COUNTS 27 29 0 0 0
M  V30 BEGIN ATOM
M  V30 1 F 0.0 0.0 0.0 0
M  V30 2 C -1.3045 -0.7286 0.0 0
M  V30 3 C -2.6091 0.0235 0.0 0
M  V30 4 C -1.3163 -2.2095 0.0 0
M  V30 5 C -3.9137 -0.7051 0.0 0
M  V30 6 C -2.6209 -2.9499 0.0 0
M  V30 7 C -3.9254 -2.186 0.0 0
M  V30 8 C -5.23 -2.9264 0.0 0
M  V30 9 C -6.5346 -2.1625 0.0 0
M  V30 10 O -6.5463 -0.6581 0.0 0
M  V30 11 N -7.8392 -2.9029 0.0 0
M  V30 12 C -9.1438 -2.139 0.0 0
M  V30 13 C -10.4483 -2.8794 0.0 0
M  V30 14 N -11.7529 -2.1155 0.0 0
M  V30 15 C -13.0575 -2.8559 0.0 0
M  V30 16 O -13.0692 -4.3368 0.0 0
M  V30 17 C -14.3621 -2.092 0.0 0
M  V30 18 C -15.6666 -2.8324 0.0 0
M  V30 19 C -14.3738 -0.5876 0.0 0
M  V30 20 C -16.9712 -2.0685 0.0 0
M  V30 21 C -15.6784 -4.3133 0.0 0
M  V30 22 C -15.6784 0.1645 0.0 0
M  V30 23 N -16.983 -0.5641 0.0 0
M  V30 24 C -18.2758 -2.8089 0.0 0
M  V30 25 C -16.983 -5.0537 0.0 0
M  V30 26 O -15.6902 1.6689 0.0 0
M  V30 27 C -18.2876 -4.2898 0.0 0
M  V30 END ATOM
M  V30 BEGIN BOND
M  V30 1 1 1 2
M  V30 2 2 2 3
M  V30 3 1 2 4
M  V30 4 1 3 5
M  V30 5 2 4 6
M  V30 6 2 5 7
M  V30 7 1 7 8
M  V30 8 1 8 9
M  V30 9 2 9 10
M  V30 10 1 9 11
M  V30 11 1 11 12
M  V30 12 1 12 13
M  V30 13 1 13 14
M  V30 14 1 14 15
M  V30 15 2 15 16
M  V30 16 1 15 17
M  V30 17 1 17 18
M  V30 18 2 17 19
M  V30 19 1 18 20
M  V30 20 2 18 21
M  V30 21 1 19 22
M  V30 22 1 20 23
M  V30 23 2 20 24
M  V30 24 1 21 25
M  V30 25 1 22 26
M  V30 26 1 24 27
M  V30 27 1 6 7
M  V30 28 2 22 23
M  V30 29 2 25 27
M  V30 END BOND
M  V30 END CTAB
M  END
>  <Structure No>
683

>  <Catalog ID>
Z966207682

>  <MW (desalted)>
367.374

>  <ClogP>
3.093

>  <HBD>
3

>  <TPSA>
91.320

>  <RotBonds>
6

>  <Target>
Tankyrase1

>  <fromRegid>


>  <Similarity>


$$$$
Compound 684
Actelion Java MolfileCreator 2.0

  0  0  0  0  0  0              0 V3000
M  V30 BEGIN CTAB
M  V30 COUNTS 25 28 0 0 0
M  V30 BEGIN ATOM
M  V30 1 O 0.0 0.0 0.0 0
M  V30 2 C -1.3092 -0.7312 0.0 0
M  V30 3 N -2.6184 0.0235 0.0 0
M  V30 4 C -1.321 -2.2174 0.0 0
M  V30 5 C -2.6302 1.5333 0.0 0
M  V30 6 C -0.0353 -2.9486 0.0 0
M  V30 7 C -2.6302 -2.9486 0.0 0
M  V30 8 C -3.8568 2.4297 0.0 0
M  V30 9 C -1.4271 2.4297 0.0 0
M  V30 10 C -0.0471 -4.4348 0.0 0
M  V30 11 C 1.2502 -2.1938 0.0 0
M  V30 12 C -2.642 -4.4348 0.0 0
M  V30 13 N -3.4086 3.8686 0.0 0
M  V30 14 N -1.8989 3.8686 0.0 0
M  V30 15 N -1.3563 -5.1778 0.0 0
M  V30 16 C 1.2384 -5.1778 0.0 0
M  V30 17 C 2.5358 -2.925 0.0 0
M  V30 18 O -3.9512 -5.1778 0.0 0
M  V30 19 C -1.0261 5.0953 0.0 0
M  V30 20 C 2.524 -4.423 0.0 0
M  V30 21 C -1.6512 6.4753 0.0 0 CFG=2
M  V30 22 O -0.9081 7.7845 0.0 0
M  V30 23 C -3.1256 6.7937 0.0 0
M  V30 24 C -1.9225 8.905 0.0 0
M  V30 25 C -3.2907 8.2917 0.0 0
M  V30 END ATOM
M  V30 BEGIN BOND
M  V30 1 2 1 2
M  V30 2 1 2 3
M  V30 3 1 2 4
M  V30 4 1 3 5
M  V30 5 1 4 6
M  V30 6 2 4 7
M  V30 7 1 5 8
M  V30 8 2 5 9
M  V30 9 1 6 10
M  V30 10 2 6 11
M  V30 11 1 7 12
M  V30 12 2 8 13
M  V30 13 1 9 14
M  V30 14 1 10 15
M  V30 15 2 10 16
M  V30 16 1 11 17
M  V30 17 1 12 18
M  V30 18 1 14 19
M  V30 19 1 16 20
M  V30 20 1 21 19 CFG=1
M  V30 21 1 21 22
M  V30 22 1 21 23
M  V30 23 1 22 24
M  V30 24 1 23 25
M  V30 25 2 12 15
M  V30 26 1 13 14
M  V30 27 2 17 20
M  V30 28 1 24 25
M  V30 END BOND
M  V30 BEGIN COLLECTION
M  V30 MDLV30/STERAC1 ATOMS=(1 21)
M  V30 END COLLECTION
M  V30 END CTAB
M  END
>  <Structure No>
684

>  <Catalog ID>
Z748557036

>  <MW (desalted)>
338.361

>  <ClogP>
2.215

>  <HBD>
2

>  <TPSA>
89.270

>  <RotBonds>
4

>  <Target>
parp14

>  <fromRegid>


>  <Similarity>


$$$$
Compound 685
Actelion Java MolfileCreator 2.0

  0  0  0  0  0  0              0 V3000
M  V30 BEGIN CTAB
M  V30 COUNTS 25 28 0 0 0
M  V30 BEGIN ATOM
M  V30 1 O 0.0 0.0 0.0 0
M  V30 2 C -0.0117 1.5054 0.0 0
M  V30 3 N -1.3172 2.2581 0.0 0
M  V30 4 C 1.2702 2.2581 0.0 0
M  V30 5 C -1.329 3.7635 0.0 0
M  V30 6 C 1.2584 3.7635 0.0 0
M  V30 7 C 2.5521 1.5171 0.0 0
M  V30 8 N -0.047 4.5163 0.0 0
M  V30 9 C -2.6345 4.5163 0.0 0
M  V30 10 C 2.5404 4.5163 0.0 0
M  V30 11 C 3.8341 2.2699 0.0 0
M  V30 12 C -2.6462 6.0217 0.0 0
M  V30 13 C 3.8223 3.7871 0.0 0
M  V30 14 N -3.9517 6.7744 0.0 0
M  V30 15 C -3.9635 8.2798 0.0 0
M  V30 16 C -5.2572 6.0452 0.0 0
M  V30 17 C -5.269 9.0326 0.0 0 CFG=2
M  V30 18 C -6.5627 6.7979 0.0 0
M  V30 19 O -6.5745 8.3034 0.0 0
M  V30 20 C -5.2807 10.538 0.0 0
M  V30 21 C -6.5862 11.3025 0.0 0
M  V30 22 C -3.9988 11.3025 0.0 0
M  V30 23 C -6.598 12.8079 0.0 0
M  V30 24 C -4.0105 12.8079 0.0 0
M  V30 25 C -5.316 13.5606 0.0 0
M  V30 END ATOM
M  V30 BEGIN BOND
M  V30 1 2 1 2
M  V30 2 1 2 3
M  V30 3 1 2 4
M  V30 4 1 3 5
M  V30 5 2 4 6
M  V30 6 1 4 7
M  V30 7 2 5 8
M  V30 8 1 5 9
M  V30 9 1 6 10
M  V30 10 2 7 11
M  V30 11 1 9 12
M  V30 12 2 10 13
M  V30 13 1 12 14
M  V30 14 1 14 15
M  V30 15 1 14 16
M  V30 16 1 15 17
M  V30 17 1 16 18
M  V30 18 1 17 19
M  V30 19 1 17 20 CFG=3
M  V30 20 2 20 21
M  V30 21 1 20 22
M  V30 22 1 21 23
M  V30 23 2 22 24
M  V30 24 2 23 25
M  V30 25 1 6 8
M  V30 26 1 11 13
M  V30 27 1 18 19
M  V30 28 1 24 25
M  V30 END BOND
M  V30 BEGIN COLLECTION
M  V30 MDLV30/STERAC1 ATOMS=(1 17)
M  V30 END COLLECTION
M  V30 END CTAB
M  END
>  <Structure No>
685

>  <Catalog ID>
Z729229542

>  <MW (desalted)>
335.400

>  <ClogP>
1.985

>  <HBD>
1

>  <TPSA>
53.930

>  <RotBonds>
4

>  <Target>
parp3

>  <fromRegid>


>  <Similarity>


$$$$
Compound 686
Actelion Java MolfileCreator 2.0

  0  0  0  0  0  0              0 V3000
M  V30 BEGIN CTAB
M  V30 COUNTS 26 28 0 0 0
M  V30 BEGIN ATOM
M  V30 1 O 0.0 0.0 0.0 0
M  V30 2 C -0.0118 -1.495 0.0 0
M  V30 3 N 1.2814 -2.2425 0.0 0
M  V30 4 C -1.3289 -2.2425 0.0 0
M  V30 5 C 2.5747 -1.4831 0.0 0
M  V30 6 C -1.3407 -3.7375 0.0 0
M  V30 7 C -2.6459 -1.4831 0.0 0
M  V30 8 C 3.868 -2.2306 0.0 0
M  V30 9 C -2.6578 -4.4731 0.0 0
M  V30 10 C -3.9629 -2.2306 0.0 0
M  V30 11 C 5.1613 -1.4712 0.0 0
M  V30 12 O -2.6696 -5.9682 0.0 0
M  V30 13 C -3.9748 -3.7138 0.0 0
M  V30 14 O -5.28 -1.4712 0.0 0
M  V30 15 N 6.4546 -2.2187 0.0 0
M  V30 16 C -3.9867 -6.7038 0.0 0
M  V30 17 C -5.2918 0.0474 0.0 0
M  V30 18 C 6.4428 -3.7138 0.0 0
M  V30 19 C 7.7479 -1.4594 0.0 0
M  V30 20 C 7.7361 -4.4494 0.0 0
M  V30 21 C 9.0413 -2.2069 0.0 0
M  V30 22 C 9.0294 -3.69 0.0 0
M  V30 23 C 7.7242 -5.9444 0.0 0
M  V30 24 C 10.3227 -4.4257 0.0 0
M  V30 25 C 9.0175 -6.6801 0.0 0
M  V30 26 C 10.3108 -5.9207 0.0 0
M  V30 END ATOM
M  V30 BEGIN BOND
M  V30 1 2 1 2
M  V30 2 1 2 3
M  V30 3 1 2 4
M  V30 4 1 3 5
M  V30 5 2 4 6
M  V30 6 1 4 7
M  V30 7 1 5 8
M  V30 8 1 6 9
M  V30 9 2 7 10
M  V30 10 1 8 11
M  V30 11 1 9 12
M  V30 12 2 9 13
M  V30 13 1 10 14
M  V30 14 1 11 15
M  V30 15 1 12 16
M  V30 16 1 14 17
M  V30 17 1 15 18
M  V30 18 1 15 19
M  V30 19 1 18 20
M  V30 20 1 19 21
M  V30 21 2 20 22
M  V30 22 1 20 23
M  V30 23 1 22 24
M  V30 24 2 23 25
M  V30 25 2 24 26
M  V30 26 1 10 13
M  V30 27 1 21 22
M  V30 28 1 25 26
M  V30 END BOND
M  V30 END CTAB
M  END
>  <Structure No>
686

>  <Catalog ID>
Z364384898

>  <MW (desalted)>
354.443

>  <ClogP>
3.568

>  <HBD>
1

>  <TPSA>
50.800

>  <RotBonds>
7

>  <Target>
Poly [ADP-ribose] polymerase-1

>  <fromRegid>
CHEMBL3629677

>  <Similarity>
0.86

$$$$
Compound 687
Actelion Java MolfileCreator 2.0

  0  0  0  0  0  0              0 V3000
M  V30 BEGIN CTAB
M  V30 COUNTS 28 31 0 0 0
M  V30 BEGIN ATOM
M  V30 1 O 0.0 0.0 0.0 0
M  V30 2 C 0.6023 1.3819 0.0 0
M  V30 3 N 2.0787 1.5472 0.0 0
M  V30 4 C -0.2952 2.6103 0.0 0
M  V30 5 C 2.9528 0.3425 0.0 0
M  V30 6 N -1.8071 2.6221 0.0 0
M  V30 7 C 0.1535 4.0512 0.0 0
M  V30 8 C 4.4292 0.5078 0.0 0
M  V30 9 C 2.3268 -1.0157 0.0 0
M  V30 10 O -2.2795 4.0631 0.0 0
M  V30 11 C -1.0748 4.9489 0.0 0
M  V30 12 C 5.3032 -0.6968 0.0 0
M  V30 13 C 3.2008 -2.2205 0.0 0
M  V30 14 C -1.0866 6.4608 0.0 0
M  V30 15 N 4.6772 -2.0551 0.0 0
M  V30 16 C -2.3977 7.2167 0.0 0
M  V30 17 C 0.2007 7.2167 0.0 0
M  V30 18 C 5.5513 -3.2599 0.0 0
M  V30 19 O -3.7087 6.4844 0.0 0
M  V30 20 C -2.4095 8.7285 0.0 0
M  V30 21 C 0.1889 8.7285 0.0 0
M  V30 22 C 7.0277 -3.0945 0.0 0
M  V30 23 C 4.9253 -4.6182 0.0 0
M  V30 24 C -5.0198 7.2403 0.0 0
M  V30 25 C -1.122 9.4963 0.0 0
M  V30 26 C 7.9017 -4.2993 0.0 0
M  V30 27 C 5.7993 -5.8229 0.0 0
M  V30 28 C 7.2757 -5.6576 0.0 0
M  V30 END ATOM
M  V30 BEGIN BOND
M  V30 1 2 1 2
M  V30 2 1 2 3
M  V30 3 1 2 4
M  V30 4 1 3 5
M  V30 5 2 4 6
M  V30 6 1 4 7
M  V30 7 1 5 8
M  V30 8 1 5 9
M  V30 9 1 6 10
M  V30 10 2 7 11
M  V30 11 1 8 12
M  V30 12 1 9 13
M  V30 13 1 11 14
M  V30 14 1 12 15
M  V30 15 2 14 16
M  V30 16 1 14 17
M  V30 17 1 15 18
M  V30 18 1 16 19
M  V30 19 1 16 20
M  V30 20 2 17 21
M  V30 21 2 18 22
M  V30 22 1 18 23
M  V30 23 1 19 24
M  V30 24 2 20 25
M  V30 25 1 22 26
M  V30 26 2 23 27
M  V30 27 2 26 28
M  V30 28 1 10 11
M  V30 29 1 13 15
M  V30 30 1 21 25
M  V30 31 1 27 28
M  V30 END BOND
M  V30 END CTAB
M  END
>  <Structure No>
687

>  <Catalog ID>
Z806754404

>  <MW (desalted)>
377.436

>  <ClogP>
2.852

>  <HBD>
1

>  <TPSA>
67.600

>  <RotBonds>
5

>  <Target>
Serine/threonine-protein kinase Chk1

>  <fromRegid>
CHEMBL2443138

>  <Similarity>
0.93

$$$$
Compound 688
Actelion Java MolfileCreator 2.0

  0  0  0  0  0  0              0 V3000
M  V30 BEGIN CTAB
M  V30 COUNTS 32 35 0 0 0
M  V30 BEGIN ATOM
M  V30 1 S 0.0 0.0 0.0 0
M  V30 2 C 0.1426 -1.4854 0.0 0
M  V30 3 C -1.4854 0.3208 0.0 0
M  V30 4 C 1.4379 -2.2222 0.0 0
M  V30 5 C -1.2478 -2.0915 0.0 0
M  V30 6 C -2.246 -0.9744 0.0 0
M  V30 7 N 1.426 -3.7196 0.0 0
M  V30 8 N 2.7332 -1.4617 0.0 0
M  V30 9 C 2.7213 -4.4564 0.0 0
M  V30 10 C 4.0286 -2.1985 0.0 0
M  V30 11 S 2.7095 -5.9537 0.0 0
M  V30 12 C 4.0167 -3.6958 0.0 0
M  V30 13 C 5.3239 -1.4379 0.0 0
M  V30 14 C 4.0048 -6.7024 0.0 0
M  V30 15 C 5.312 -4.4326 0.0 0
M  V30 16 C 6.6192 -2.1747 0.0 0
M  V30 17 C 3.9929 -8.1998 0.0 0
M  V30 18 C 6.6074 -3.6721 0.0 0
M  V30 19 O 2.6738 -8.9366 0.0 0
M  V30 20 N 5.2883 -8.9366 0.0 0
M  V30 21 C 5.2764 -10.434 0.0 0
M  V30 22 C 3.9573 -11.1826 0.0 0
M  V30 23 C 6.5717 -11.1826 0.0 0
M  V30 24 C 3.9454 -12.68 0.0 0
M  V30 25 C 6.5598 -12.68 0.0 0
M  V30 26 C 2.6263 -13.4168 0.0 0
M  V30 27 C 5.2407 -13.4168 0.0 0
M  V30 28 C 7.8552 -13.4168 0.0 0
M  V30 29 O 1.3072 -12.6562 0.0 0
M  V30 30 N 2.6144 -14.9142 0.0 0
M  V30 31 O 9.1505 -12.6562 0.0 0
M  V30 32 N 7.8433 -14.9142 0.0 0
M  V30 END ATOM
M  V30 BEGIN BOND
M  V30 1 1 1 2
M  V30 2 1 1 3
M  V30 3 1 2 4
M  V30 4 2 2 5
M  V30 5 2 3 6
M  V30 6 1 4 7
M  V30 7 2 4 8
M  V30 8 2 7 9
M  V30 9 1 8 10
M  V30 10 1 9 11
M  V30 11 1 9 12
M  V30 12 2 10 13
M  V30 13 1 11 14
M  V30 14 2 12 15
M  V30 15 1 13 16
M  V30 16 1 14 17
M  V30 17 1 15 18
M  V30 18 2 17 19
M  V30 19 1 17 20
M  V30 20 1 20 21
M  V30 21 2 21 22
M  V30 22 1 21 23
M  V30 23 1 22 24
M  V30 24 2 23 25
M  V30 25 1 24 26
M  V30 26 2 24 27
M  V30 27 1 25 28
M  V30 28 2 26 29
M  V30 29 1 26 30
M  V30 30 2 28 31
M  V30 31 1 28 32
M  V30 32 1 5 6
M  V30 33 1 10 12
M  V30 34 2 16 18
M  V30 35 1 25 27
M  V30 END BOND
M  V30 END CTAB
M  END
>  <Structure No>
688

>  <Catalog ID>
Z16380411

>  <MW (desalted)>
463.532

>  <ClogP>
2.350

>  <HBD>
3

>  <TPSA>
141.060

>  <RotBonds>
7

>  <Target>
parp14

>  <fromRegid>


>  <Similarity>


$$$$
Compound 689
Actelion Java MolfileCreator 2.0

  0  0  0  0  0  0              0 V3000
M  V30 BEGIN CTAB
M  V30 COUNTS 28 31 0 0 0
M  V30 BEGIN ATOM
M  V30 1 O 0.0 0.0 0.0 0
M  V30 2 C -0.0118 -1.4964 0.0 0
M  V30 3 N -1.3301 -2.2328 0.0 0
M  V30 4 C 1.2826 -2.2328 0.0 0
M  V30 5 N -1.342 -3.7292 0.0 0
M  V30 6 C 1.2707 -3.7292 0.0 0
M  V30 7 C 2.5772 -1.4726 0.0 0
M  V30 8 C -0.0475 -4.4656 0.0 0
M  V30 9 C 2.5653 -4.4656 0.0 0
M  V30 10 C 3.8717 -2.209 0.0 0
M  V30 11 C -0.0593 -5.962 0.0 0
M  V30 12 C 3.8598 -3.7054 0.0 0
M  V30 13 C 1.2351 -6.7102 0.0 0
M  V30 14 O 2.5297 -5.9501 0.0 0
M  V30 15 N 1.2232 -8.2067 0.0 0
M  V30 16 C 2.5178 -8.943 0.0 0
M  V30 17 C 2.5059 -10.4395 0.0 0
M  V30 18 C 3.8005 -11.1877 0.0 0
M  V30 19 C 1.1876 -11.1877 0.0 0
M  V30 20 C 3.7886 -12.6842 0.0 0
M  V30 21 C 1.1757 -12.6842 0.0 0
M  V30 22 C 2.4703 -13.4205 0.0 0
M  V30 23 C 2.4584 -14.917 0.0 0
M  V30 24 N 1.1401 -15.6533 0.0 0
M  V30 25 C -0.2494 -15.0238 0.0 0
M  V30 26 C 0.9738 -17.1379 0.0 0
M  V30 27 N -1.2707 -16.1284 0.0 0
M  V30 28 C -0.5106 -17.4348 0.0 0
M  V30 END ATOM
M  V30 BEGIN BOND
M  V30 1 2 1 2
M  V30 2 1 2 3
M  V30 3 1 2 4
M  V30 4 1 3 5
M  V30 5 2 4 6
M  V30 6 1 4 7
M  V30 7 2 5 8
M  V30 8 1 6 9
M  V30 9 2 7 10
M  V30 10 1 8 11
M  V30 11 2 9 12
M  V30 12 1 11 13
M  V30 13 2 13 14
M  V30 14 1 13 15
M  V30 15 1 15 16
M  V30 16 1 16 17
M  V30 17 2 17 18
M  V30 18 1 17 19
M  V30 19 1 18 20
M  V30 20 2 19 21
M  V30 21 2 20 22
M  V30 22 1 22 23
M  V30 23 1 23 24
M  V30 24 1 24 25
M  V30 25 1 24 26
M  V30 26 2 25 27
M  V30 27 2 26 28
M  V30 28 1 6 8
M  V30 29 1 10 12
M  V30 30 1 21 22
M  V30 31 1 27 28
M  V30 END BOND
M  V30 END CTAB
M  END
>  <Structure No>
689

>  <Catalog ID>
Z203871418

>  <MW (desalted)>
373.408

>  <ClogP>
0.094

>  <HBD>
2

>  <TPSA>
88.380

>  <RotBonds>
6

>  <Target>
parp10

>  <fromRegid>


>  <Similarity>


$$$$
Compound 690
Actelion Java MolfileCreator 2.0

  0  0  0  0  0  0              0 V3000
M  V30 BEGIN CTAB
M  V30 COUNTS 25 27 0 0 0
M  V30 BEGIN ATOM
M  V30 1 O 0.0 0.0 0.0 0
M  V30 2 C -1.3106 0.7556 0.0 0
M  V30 3 N -1.3224 2.267 0.0 0
M  V30 4 C -2.6212 0.0236 0.0 0
M  V30 5 C -0.0354 3.0227 0.0 0
M  V30 6 N -2.633 -1.4641 0.0 0
M  V30 7 C -0.0472 4.534 0.0 0
M  V30 8 C 1.2515 2.2906 0.0 0
M  V30 9 N -1.4287 -2.3378 0.0 0
M  V30 10 N -3.861 -2.3378 0.0 0
M  V30 11 C 1.2397 5.2897 0.0 0
M  V30 12 C 2.5386 3.0463 0.0 0
M  V30 13 N -1.9009 -3.7547 0.0 0
M  V30 14 C -3.4123 -3.7547 0.0 0
M  V30 15 C 1.2279 6.801 0.0 0
M  V30 16 C 2.5267 4.5576 0.0 0
M  V30 17 C -4.3097 -4.9591 0.0 0
M  V30 18 O -0.0826 7.5685 0.0 0
M  V30 19 C 2.5149 7.5685 0.0 0
M  V30 20 C -5.8092 -4.7938 0.0 0
M  V30 21 C -3.7075 -6.3169 0.0 0
M  V30 22 C -6.7066 -5.9981 0.0 0
M  V30 23 C -6.435 -3.4123 0.0 0
M  V30 24 C -4.6049 -7.5213 0.0 0
M  V30 25 C -6.1044 -7.356 0.0 0
M  V30 END ATOM
M  V30 BEGIN BOND
M  V30 1 2 1 2
M  V30 2 1 2 3
M  V30 3 1 2 4
M  V30 4 1 3 5
M  V30 5 1 4 6
M  V30 6 2 5 7
M  V30 7 1 5 8
M  V30 8 1 6 9
M  V30 9 1 6 10
M  V30 10 1 7 11
M  V30 11 2 8 12
M  V30 12 2 9 13
M  V30 13 2 10 14
M  V30 14 1 11 15
M  V30 15 2 11 16
M  V30 16 1 14 17
M  V30 17 2 15 18
M  V30 18 1 15 19
M  V30 19 2 17 20
M  V30 20 1 17 21
M  V30 21 1 20 22
M  V30 22 1 20 23
M  V30 23 2 21 24
M  V30 24 2 22 25
M  V30 25 1 12 16
M  V30 26 1 13 14
M  V30 27 1 24 25
M  V30 END BOND
M  V30 END CTAB
M  END
>  <Structure No>
690

>  <Catalog ID>
Z16526211

>  <MW (desalted)>
335.360

>  <ClogP>
2.737

>  <HBD>
1

>  <TPSA>
89.770

>  <RotBonds>
5

>  <Target>
parp14

>  <fromRegid>


>  <Similarity>


$$$$
Compound 691
Actelion Java MolfileCreator 2.0

  0  0  0  0  0  0              0 V3000
M  V30 BEGIN CTAB
M  V30 COUNTS 25 28 0 0 0
M  V30 BEGIN ATOM
M  V30 1 S 0.0 0.0 0.0 0
M  V30 2 C -1.3147 0.7699 0.0 0
M  V30 3 C 1.291 0.7699 0.0 0
M  V30 4 N -1.4806 2.2742 0.0 0
M  V30 5 N -2.7006 0.1658 0.0 0
M  V30 6 C 2.5821 0.0236 0.0 0
M  V30 7 N -2.9612 2.594 0.0 0
M  V30 8 N -3.7192 1.291 0.0 0
M  V30 9 C -3.0204 -1.291 0.0 0
M  V30 10 N 3.8732 0.7936 0.0 0
M  V30 11 N 2.5703 -1.4687 0.0 0
M  V30 12 C -1.9188 -2.286 0.0 0
M  V30 13 C -4.4655 -1.7411 0.0 0
M  V30 14 C 5.1643 0.0473 0.0 0
M  V30 15 C 3.8614 -2.2149 0.0 0
M  V30 16 C -2.2386 -3.7429 0.0 0
M  V30 17 C -0.4974 -1.8122 0.0 0
M  V30 18 C -4.7853 -3.1981 0.0 0
M  V30 19 C 5.1525 -1.445 0.0 0
M  V30 20 C 6.4554 0.8172 0.0 0
M  V30 21 O 3.8495 -3.7074 0.0 0
M  V30 22 C -3.6837 -4.193 0.0 0
M  V30 23 C 6.4435 -2.1912 0.0 0
M  V30 24 C 7.7465 0.071 0.0 0
M  V30 25 C 7.7346 -1.4213 0.0 0
M  V30 END ATOM
M  V30 BEGIN BOND
M  V30 1 1 1 2
M  V30 2 1 1 3
M  V30 3 2 2 4
M  V30 4 1 2 5
M  V30 5 1 3 6
M  V30 6 1 4 7
M  V30 7 1 5 8
M  V30 8 1 5 9
M  V30 9 2 6 10
M  V30 10 1 6 11
M  V30 11 2 9 12
M  V30 12 1 9 13
M  V30 13 1 10 14
M  V30 14 1 11 15
M  V30 15 1 12 16
M  V30 16 1 12 17
M  V30 17 2 13 18
M  V30 18 2 14 19
M  V30 19 1 14 20
M  V30 20 2 15 21
M  V30 21 2 16 22
M  V30 22 1 19 23
M  V30 23 2 20 24
M  V30 24 2 23 25
M  V30 25 2 7 8
M  V30 26 1 15 19
M  V30 27 1 18 22
M  V30 28 1 24 25
M  V30 END BOND
M  V30 END CTAB
M  END
>  <Structure No>
691

>  <Catalog ID>
Z16534238

>  <MW (desalted)>
350.398

>  <ClogP>
1.734

>  <HBD>
1

>  <TPSA>
85.060

>  <RotBonds>
4

>  <Target>
parp3

>  <fromRegid>


>  <Similarity>


$$$$
Compound 692
Actelion Java MolfileCreator 2.0

  0  0  0  0  0  0              0 V3000
M  V30 BEGIN CTAB
M  V30 COUNTS 29 32 0 0 0
M  V30 BEGIN ATOM
M  V30 1 Cl 0.0 0.0 0.0 0
M  V30 2 C -0.0117 -1.4836 0.0 0
M  V30 3 C 1.2717 -2.2255 0.0 0
M  V30 4 C -1.3188 -2.2255 0.0 0
M  V30 5 C 2.5552 -1.4601 0.0 0
M  V30 6 C 1.2599 -3.7092 0.0 0
M  V30 7 C -1.3306 -3.7092 0.0 0
M  V30 8 O 3.8387 -2.2019 0.0 0
M  V30 9 N 2.5434 0.0471 0.0 0
M  V30 10 C -0.0471 -4.4392 0.0 0
M  V30 11 C 3.8269 0.8007 0.0 0
M  V30 12 C 1.2364 0.8007 0.0 0
M  V30 13 C 3.8152 2.3079 0.0 0
M  V30 14 C 1.2246 2.3079 0.0 0
M  V30 15 N 2.5081 3.0733 0.0 0
M  V30 16 C 2.4963 4.5806 0.0 0
M  V30 17 O 3.7798 5.3342 0.0 0
M  V30 18 C 1.1893 5.3342 0.0 0
M  V30 19 C -0.1177 4.5923 0.0 0
M  V30 20 C 1.1775 6.8414 0.0 0
M  V30 21 C -1.4248 5.3459 0.0 0
M  V30 22 C -0.1295 7.595 0.0 0
M  V30 23 N -2.7318 4.6041 0.0 0
M  V30 24 C -1.4365 6.8532 0.0 0
M  V30 25 C -4.0389 5.3577 0.0 0
M  V30 26 S -2.7436 7.6068 0.0 0
M  V30 27 O -5.3459 4.6159 0.0 0
M  V30 28 C -4.0507 6.865 0.0 0 CFG=1
M  V30 29 C -5.3577 7.6186 0.0 0
M  V30 END ATOM
M  V30 BEGIN BOND
M  V30 1 1 1 2
M  V30 2 2 2 3
M  V30 3 1 2 4
M  V30 4 1 3 5
M  V30 5 1 3 6
M  V30 6 2 4 7
M  V30 7 2 5 8
M  V30 8 1 5 9
M  V30 9 2 6 10
M  V30 10 1 9 11
M  V30 11 1 9 12
M  V30 12 1 11 13
M  V30 13 1 12 14
M  V30 14 1 13 15
M  V30 15 1 15 16
M  V30 16 2 16 17
M  V30 17 1 16 18
M  V30 18 2 18 19
M  V30 19 1 18 20
M  V30 20 1 19 21
M  V30 21 2 20 22
M  V30 22 1 21 23
M  V30 23 2 21 24
M  V30 24 1 23 25
M  V30 25 1 24 26
M  V30 26 2 25 27
M  V30 27 1 25 28
M  V30 28 1 28 29 CFG=3
M  V30 29 1 7 10
M  V30 30 1 14 15
M  V30 31 1 22 24
M  V30 32 1 26 28
M  V30 END BOND
M  V30 BEGIN COLLECTION
M  V30 MDLV30/STERAC1 ATOMS=(1 28)
M  V30 END COLLECTION
M  V30 END CTAB
M  END
>  <Structure No>
692

>  <Catalog ID>
Z52112630

>  <MW (desalted)>
429.920

>  <ClogP>
2.880

>  <HBD>
1

>  <TPSA>
69.720

>  <RotBonds>
2

>  <Target>
parp1

>  <fromRegid>


>  <Similarity>


$$$$
Compound 693
Actelion Java MolfileCreator 2.0

  0  0  0  0  0  0              0 V3000
M  V30 BEGIN CTAB
M  V30 COUNTS 26 29 0 0 0
M  V30 BEGIN ATOM
M  V30 1 O 0.0 0.0 0.0 0
M  V30 2 C -1.3132 -0.7335 0.0 0
M  V30 3 N -1.3251 -2.2243 0.0 0
M  V30 4 C -2.6265 0.0236 0.0 0
M  V30 5 C -0.0354 -2.9578 0.0 0
M  V30 6 C -2.6384 1.538 0.0 0
M  V30 7 C -3.9398 -0.7098 0.0 0
M  V30 8 C -0.0473 -4.4486 0.0 0
M  V30 9 C 1.2541 -2.2006 0.0 0
M  V30 10 C -3.9517 2.2953 0.0 0
M  V30 11 C -5.2531 0.0473 0.0 0
M  V30 12 C 1.2423 -5.1821 0.0 0
M  V30 13 C 2.5437 -2.9342 0.0 0
M  V30 14 C -5.265 1.5617 0.0 0
M  V30 15 C -3.9635 3.8097 0.0 0
M  V30 16 N 1.2304 -6.6729 0.0 0
M  V30 17 C 2.5319 -4.4249 0.0 0
M  V30 18 N -2.6739 4.5669 0.0 0
M  V30 19 C 0.0 -7.5484 0.0 0
M  V30 20 C 2.4372 -7.5484 0.0 0
M  V30 21 C -1.3132 3.9635 0.0 0
M  V30 22 C -2.5319 6.0695 0.0 0
M  V30 23 N 0.4495 -8.9682 0.0 0
M  V30 24 C 1.964 -8.9682 0.0 0
M  V30 25 N -0.3194 5.0875 0.0 0
M  V30 26 C -1.0766 6.389 0.0 0
M  V30 END ATOM
M  V30 BEGIN BOND
M  V30 1 2 1 2
M  V30 2 1 2 3
M  V30 3 1 2 4
M  V30 4 1 3 5
M  V30 5 2 4 6
M  V30 6 1 4 7
M  V30 7 2 5 8
M  V30 8 1 5 9
M  V30 9 1 6 10
M  V30 10 2 7 11
M  V30 11 1 8 12
M  V30 12 2 9 13
M  V30 13 2 10 14
M  V30 14 1 10 15
M  V30 15 1 12 16
M  V30 16 2 12 17
M  V30 17 1 15 18
M  V30 18 1 16 19
M  V30 19 1 16 20
M  V30 20 1 18 21
M  V30 21 1 18 22
M  V30 22 2 19 23
M  V30 23 2 20 24
M  V30 24 2 21 25
M  V30 25 2 22 26
M  V30 26 1 11 14
M  V30 27 1 13 17
M  V30 28 1 23 24
M  V30 29 1 25 26
M  V30 END BOND
M  V30 END CTAB
M  END
>  <Structure No>
693

>  <Catalog ID>
Z510051912

>  <MW (desalted)>
343.382

>  <ClogP>
2.221

>  <HBD>
1

>  <TPSA>
64.740

>  <RotBonds>
5

>  <Target>
parp14

>  <fromRegid>


>  <Similarity>


$$$$
Compound 694
Actelion Java MolfileCreator 2.0

  0  0  0  0  0  0              0 V3000
M  V30 BEGIN CTAB
M  V30 COUNTS 30 32 0 0 0
M  V30 BEGIN ATOM
M  V30 1 S 0.0 0.0 0.0 0
M  V30 2 C -1.3161 -0.7351 0.0 0
M  V30 3 C 1.2924 -0.7351 0.0 0
M  V30 4 N -2.7034 -0.1067 0.0 0
M  V30 5 N -1.4821 -2.2172 0.0 0
M  V30 6 C 2.5848 0.0237 0.0 0
M  V30 7 N -3.7231 -1.2094 0.0 0
M  V30 8 N -2.9642 -2.5136 0.0 0
M  V30 9 C -0.3794 -3.2132 0.0 0
M  V30 10 O 2.5729 1.5414 0.0 0
M  V30 11 N 3.8772 -0.7114 0.0 0
M  V30 12 C -0.6995 -4.6716 0.0 0
M  V30 13 C 1.0434 -2.7389 0.0 0
M  V30 14 C 5.1696 0.0474 0.0 0
M  V30 15 C 0.4031 -5.6676 0.0 0
M  V30 16 C -2.1461 -5.1222 0.0 0
M  V30 17 C 2.1461 -3.7349 0.0 0
M  V30 18 C 5.1578 1.5651 0.0 0
M  V30 19 C 6.462 -0.6877 0.0 0
M  V30 20 C 1.8259 -5.1933 0.0 0
M  V30 21 C 6.4502 2.3239 0.0 0
M  V30 22 C 7.7545 0.0711 0.0 0
M  V30 23 C 2.9286 -6.1893 0.0 0
M  V30 24 C 6.4383 3.8416 0.0 0
M  V30 25 C 7.7426 1.5888 0.0 0
M  V30 26 C 9.0469 -0.6639 0.0 0
M  V30 27 O 7.7308 4.6005 0.0 0
M  V30 28 N 5.1222 4.6005 0.0 0
M  V30 29 O 10.3393 0.0948 0.0 0
M  V30 30 N 9.035 -2.1579 0.0 0
M  V30 END ATOM
M  V30 BEGIN BOND
M  V30 1 1 1 2
M  V30 2 1 1 3
M  V30 3 2 2 4
M  V30 4 1 2 5
M  V30 5 1 3 6
M  V30 6 1 4 7
M  V30 7 1 5 8
M  V30 8 1 5 9
M  V30 9 2 6 10
M  V30 10 1 6 11
M  V30 11 2 9 12
M  V30 12 1 9 13
M  V30 13 1 11 14
M  V30 14 1 12 15
M  V30 15 1 12 16
M  V30 16 2 13 17
M  V30 17 2 14 18
M  V30 18 1 14 19
M  V30 19 2 15 20
M  V30 20 1 18 21
M  V30 21 2 19 22
M  V30 22 1 20 23
M  V30 23 1 21 24
M  V30 24 2 21 25
M  V30 25 1 22 26
M  V30 26 2 24 27
M  V30 27 1 24 28
M  V30 28 2 26 29
M  V30 29 1 26 30
M  V30 30 2 7 8
M  V30 31 1 17 20
M  V30 32 1 22 25
M  V30 END BOND
M  V30 END CTAB
M  END
>  <Structure No>
694

>  <Catalog ID>
Z16587308

>  <MW (desalted)>
425.464

>  <ClogP>
0.579

>  <HBD>
3

>  <TPSA>
158.880

>  <RotBonds>
7

>  <Target>
parp14

>  <fromRegid>


>  <Similarity>


$$$$
Compound 695
Actelion Java MolfileCreator 2.0

  0  0  0  0  0  0              0 V3000
M  V30 BEGIN CTAB
M  V30 COUNTS 35 38 0 0 0
M  V30 BEGIN ATOM
M  V30 1 Cl 0.0 0.0 0.0 0
M  V30 2 C -1.3049 0.7523 0.0 0
M  V30 3 C -2.6098 0.0117 0.0 0
M  V30 4 C -1.3166 2.2571 0.0 0
M  V30 5 C -3.9147 0.7641 0.0 0
M  V30 6 C -2.6215 3.0095 0.0 0
M  V30 7 C -5.2196 0.0235 0.0 0
M  V30 8 C -3.9265 2.2689 0.0 0
M  V30 9 O -5.2314 -1.4577 0.0 0
M  V30 10 N -6.5245 0.7758 0.0 0
M  V30 11 N -5.2314 3.0212 0.0 0
M  V30 12 C -6.5363 2.2806 0.0 0
M  V30 13 C -7.8295 0.0352 0.0 0
M  V30 14 S -7.8412 3.033 0.0 0
M  V30 15 C -9.1344 0.7876 0.0 0
M  V30 16 C -7.8412 -1.4459 0.0 0
M  V30 17 C -9.1461 2.3041 0.0 0
M  V30 18 C -10.4393 0.047 0.0 0
M  V30 19 C -9.1461 -2.1866 0.0 0
M  V30 20 C -10.451 3.0565 0.0 0
M  V30 21 C -10.0396 1.105 0.0 0
M  V30 22 C -10.451 -1.4342 0.0 0
M  V30 23 O -11.756 2.3276 0.0 0
M  V30 24 N -10.4628 4.5613 0.0 0
M  V30 25 C -11.756 -2.1748 0.0 0
M  V30 26 C -11.7677 5.3137 0.0 0
M  V30 27 C -9.1814 5.3137 0.0 0
M  V30 28 C -11.7677 -3.6561 0.0 0
M  V30 29 C -13.0609 -1.4107 0.0 0
M  V30 30 C -13.0726 4.5848 0.0 0
M  V30 31 C -11.7795 6.8184 0.0 0
M  V30 32 C -13.0726 -4.3849 0.0 0
M  V30 33 C -14.3775 5.3372 0.0 0
M  V30 34 C -13.0844 7.5708 0.0 0
M  V30 35 C -14.3893 6.8419 0.0 0
M  V30 END ATOM
M  V30 BEGIN BOND
M  V30 1 1 1 2
M  V30 2 2 2 3
M  V30 3 1 2 4
M  V30 4 1 3 5
M  V30 5 2 4 6
M  V30 6 1 5 7
M  V30 7 2 5 8
M  V30 8 2 7 9
M  V30 9 1 7 10
M  V30 10 1 8 11
M  V30 11 1 10 12
M  V30 12 1 10 13
M  V30 13 1 12 14
M  V30 14 2 13 15
M  V30 15 1 13 16
M  V30 16 1 14 17
M  V30 17 1 15 18
M  V30 18 2 16 19
M  V30 19 1 17 20
M  V30 20 1 17 21
M  V30 21 2 18 22
M  V30 22 2 20 23
M  V30 23 1 20 24
M  V30 24 1 22 25
M  V30 25 1 24 26
M  V30 26 1 24 27
M  V30 27 1 25 28
M  V30 28 1 25 29
M  V30 29 2 26 30
M  V30 30 1 26 31
M  V30 31 1 28 32
M  V30 32 1 30 33
M  V30 33 2 31 34
M  V30 34 2 33 35
M  V30 35 1 6 8
M  V30 36 2 11 12
M  V30 37 1 19 22
M  V30 38 1 34 35
M  V30 END BOND
M  V30 END CTAB
M  END
>  <Structure No>
695

>  <Catalog ID>
Z16661687

>  <MW (desalted)>
506.059

>  <ClogP>
7.395

>  <HBD>
0

>  <TPSA>
52.980

>  <RotBonds>
7

>  <Target>
Serine/threonine-protein kinase Chk1

>  <fromRegid>
CHEMBL445683

>  <Similarity>
0.85

$$$$
Compound 696
Actelion Java MolfileCreator 2.0

  0  0  0  0  0  0              0 V3000
M  V30 BEGIN CTAB
M  V30 COUNTS 36 39 0 0 0
M  V30 BEGIN ATOM
M  V30 1 Cl 0.0 0.0 0.0 0
M  V30 2 C 1.2881 0.7681 0.0 0
M  V30 3 C 1.2763 2.2809 0.0 0
M  V30 4 C 2.5763 0.0236 0.0 0
M  V30 5 C 2.5645 3.0372 0.0 0
M  V30 6 C 3.8645 0.7918 0.0 0
M  V30 7 C 2.5527 4.5499 0.0 0
M  V30 8 C 3.8527 2.3045 0.0 0
M  V30 9 O 1.2409 5.3181 0.0 0
M  V30 10 N 3.8408 5.3181 0.0 0
M  V30 11 N 5.1408 3.0608 0.0 0
M  V30 12 C 5.129 4.5736 0.0 0
M  V30 13 C 3.829 6.8308 0.0 0
M  V30 14 S 6.4172 5.3417 0.0 0
M  V30 15 C 5.1172 7.5872 0.0 0
M  V30 16 C 2.5172 7.5872 0.0 0
M  V30 17 C 7.7054 4.5972 0.0 0
M  V30 18 C 5.1054 9.0999 0.0 0
M  V30 19 C 2.5054 9.0999 0.0 0
M  V30 20 C 8.9936 5.3654 0.0 0
M  V30 21 C 7.6936 3.1081 0.0 0
M  V30 22 C 3.7936 9.8563 0.0 0
M  V30 23 O 8.9817 6.8781 0.0 0
M  V30 24 N 10.2817 4.6208 0.0 0
M  V30 25 C 3.7818 11.369 0.0 0
M  V30 26 C 11.5699 5.389 0.0 0
M  V30 27 C 10.2699 3.1318 0.0 0
M  V30 28 C 2.4699 12.1254 0.0 0
M  V30 29 C 5.0699 12.1254 0.0 0
M  V30 30 C 12.8581 4.6445 0.0 0
M  V30 31 C 2.4581 13.6381 0.0 0
M  V30 32 C 14.1463 5.4127 0.0 0
M  V30 33 C 12.8463 3.1554 0.0 0
M  V30 34 C 15.4344 4.6681 0.0 0
M  V30 35 C 14.1344 2.4227 0.0 0
M  V30 36 C 15.4226 3.179 0.0 0
M  V30 END ATOM
M  V30 BEGIN BOND
M  V30 1 1 1 2
M  V30 2 2 2 3
M  V30 3 1 2 4
M  V30 4 1 3 5
M  V30 5 2 4 6
M  V30 6 1 5 7
M  V30 7 2 5 8
M  V30 8 2 7 9
M  V30 9 1 7 10
M  V30 10 1 8 11
M  V30 11 1 10 12
M  V30 12 1 10 13
M  V30 13 1 12 14
M  V30 14 2 13 15
M  V30 15 1 13 16
M  V30 16 1 14 17
M  V30 17 1 15 18
M  V30 18 2 16 19
M  V30 19 1 17 20
M  V30 20 1 17 21
M  V30 21 2 18 22
M  V30 22 2 20 23
M  V30 23 1 20 24
M  V30 24 1 22 25
M  V30 25 1 24 26
M  V30 26 1 24 27
M  V30 27 1 25 28
M  V30 28 1 25 29
M  V30 29 1 26 30
M  V30 30 1 28 31
M  V30 31 2 30 32
M  V30 32 1 30 33
M  V30 33 1 32 34
M  V30 34 2 33 35
M  V30 35 2 34 36
M  V30 36 1 6 8
M  V30 37 2 11 12
M  V30 38 1 19 22
M  V30 39 1 35 36
M  V30 END BOND
M  V30 END CTAB
M  END
>  <Structure No>
696

>  <Catalog ID>
Z16661610

>  <MW (desalted)>
520.085

>  <ClogP>
7.469

>  <HBD>
0

>  <TPSA>
52.980

>  <RotBonds>
8

>  <Target>
Serine/threonine-protein kinase Chk1

>  <fromRegid>
CHEMBL445683

>  <Similarity>
0.87

$$$$
Compound 697
Actelion Java MolfileCreator 2.0

  0  0  0  0  0  0              0 V3000
M  V30 BEGIN CTAB
M  V30 COUNTS 26 29 0 0 0
M  V30 BEGIN ATOM
M  V30 1 O 0.0 0.0 0.0 0
M  V30 2 C 1.4935 0.0118 0.0 0
M  V30 3 N 2.3707 -1.1972 0.0 0
M  V30 4 C 2.3707 1.2446 0.0 0
M  V30 5 C 3.7931 -0.723 0.0 0
M  V30 6 C 3.7931 0.7941 0.0 0
M  V30 7 C 5.0851 -1.4579 0.0 0
M  V30 8 C 5.0851 1.5528 0.0 0
M  V30 9 C 6.3772 -0.6993 0.0 0
M  V30 10 C 6.3772 0.8178 0.0 0
M  V30 11 C 7.6692 1.5765 0.0 0 CFG=1
M  V30 12 N 8.9613 0.8416 0.0 0
M  V30 13 C 7.6574 3.0937 0.0 0
M  V30 14 C 10.2533 1.6002 0.0 0
M  V30 15 O 10.2415 3.1174 0.0 0
M  V30 16 C 11.5454 0.8653 0.0 0
M  V30 17 N 11.6876 -0.6163 0.0 0
M  V30 18 C 12.9085 1.4935 0.0 0
M  V30 19 C 10.5615 -1.612 0.0 0
M  V30 20 C 13.1456 -0.9127 0.0 0
M  V30 21 N 13.9042 0.3911 0.0 0
M  V30 22 C 10.8578 -3.07 0.0 0
M  V30 23 C 9.1154 -1.1379 0.0 0
M  V30 24 C 9.7318 -4.0657 0.0 0
M  V30 25 C 7.9893 -2.1336 0.0 0
M  V30 26 C 8.2856 -3.5916 0.0 0
M  V30 END ATOM
M  V30 BEGIN BOND
M  V30 1 2 1 2
M  V30 2 1 2 3
M  V30 3 1 2 4
M  V30 4 1 3 5
M  V30 5 1 4 6
M  V30 6 1 5 7
M  V30 7 1 6 8
M  V30 8 2 7 9
M  V30 9 2 8 10
M  V30 10 1 10 11
M  V30 11 1 11 12 CFG=3
M  V30 12 1 11 13
M  V30 13 1 12 14
M  V30 14 2 14 15
M  V30 15 1 14 16
M  V30 16 1 16 17
M  V30 17 2 16 18
M  V30 18 1 17 19
M  V30 19 1 17 20
M  V30 20 1 18 21
M  V30 21 2 19 22
M  V30 22 1 19 23
M  V30 23 1 22 24
M  V30 24 2 23 25
M  V30 25 2 24 26
M  V30 26 2 5 6
M  V30 27 1 9 10
M  V30 28 2 20 21
M  V30 29 1 25 26
M  V30 END BOND
M  V30 BEGIN COLLECTION
M  V30 MDLV30/STERAC1 ATOMS=(1 11)
M  V30 END COLLECTION
M  V30 END CTAB
M  END
>  <Structure No>
697

>  <Catalog ID>
Z510556462

>  <MW (desalted)>
346.383

>  <ClogP>
2.718

>  <HBD>
2

>  <TPSA>
76.020

>  <RotBonds>
4

>  <Target>
parp15

>  <fromRegid>


>  <Similarity>


$$$$
Compound 698
Actelion Java MolfileCreator 2.0

  0  0  0  0  0  0              0 V3000
M  V30 BEGIN CTAB
M  V30 COUNTS 25 28 0 0 0
M  V30 BEGIN ATOM
M  V30 1 S 0.0 0.0 0.0 0
M  V30 2 C -0.7553 -1.2864 0.0 0
M  V30 3 C -1.0149 1.1211 0.0 0
M  V30 4 N -2.2305 -0.9677 0.0 0
M  V30 5 C -0.1534 -2.6436 0.0 0
M  V30 6 C -2.3957 0.5192 0.0 0
M  V30 7 O -0.9087 -3.93 0.0 0
M  V30 8 C 1.2982 -2.9386 0.0 0
M  V30 9 C -3.7058 1.2746 0.0 0
M  V30 10 C 0.0826 -5.0276 0.0 0
M  V30 11 C 1.4398 -4.4139 0.0 0
M  V30 12 O -3.7176 2.7852 0.0 0
M  V30 13 N -5.0158 0.5428 0.0 0
M  V30 14 C -6.3258 1.2982 0.0 0 CFG=2
M  V30 15 C -7.6358 0.5664 0.0 0
M  V30 16 C -6.3376 2.8088 0.0 0
M  V30 17 C -8.9458 1.3218 0.0 0
M  V30 18 C -7.6476 -0.9205 0.0 0
M  V30 19 C -10.2558 0.59 0.0 0
M  V30 20 C -8.9576 -1.6522 0.0 0
M  V30 21 C -10.2676 -0.8969 0.0 0
M  V30 22 C -11.6957 1.0621 0.0 0
M  V30 23 N -11.7075 -1.3454 0.0 0
M  V30 24 C -12.5926 -0.1416 0.0 0
M  V30 25 O -14.1033 -0.1298 0.0 0
M  V30 END ATOM
M  V30 BEGIN BOND
M  V30 1 1 1 2
M  V30 2 1 1 3
M  V30 3 2 2 4
M  V30 4 1 2 5
M  V30 5 2 3 6
M  V30 6 1 5 7
M  V30 7 2 5 8
M  V30 8 1 6 9
M  V30 9 1 7 10
M  V30 10 1 8 11
M  V30 11 2 9 12
M  V30 12 1 9 13
M  V30 13 1 14 13 CFG=3
M  V30 14 1 14 15
M  V30 15 1 14 16
M  V30 16 2 15 17
M  V30 17 1 15 18
M  V30 18 1 17 19
M  V30 19 2 18 20
M  V30 20 2 19 21
M  V30 21 1 19 22
M  V30 22 1 21 23
M  V30 23 1 22 24
M  V30 24 2 24 25
M  V30 25 1 4 6
M  V30 26 2 10 11
M  V30 27 1 20 21
M  V30 28 1 23 24
M  V30 END BOND
M  V30 BEGIN COLLECTION
M  V30 MDLV30/STERAC1 ATOMS=(1 14)
M  V30 END COLLECTION
M  V30 END CTAB
M  END
>  <Structure No>
698

>  <Catalog ID>
Z510545558

>  <MW (desalted)>
353.395

>  <ClogP>
2.641

>  <HBD>
2

>  <TPSA>
84.230

>  <RotBonds>
4

>  <Target>
parp14

>  <fromRegid>


>  <Similarity>


$$$$
Compound 699
Actelion Java MolfileCreator 2.0

  0  0  0  0  0  0              0 V3000
M  V30 BEGIN CTAB
M  V30 COUNTS 29 31 0 0 0
M  V30 BEGIN ATOM
M  V30 1 O 0.0 0.0 0.0 0
M  V30 2 C -0.0118 1.5151 0.0 0
M  V30 3 C 1.2902 -0.7338 0.0 0
M  V30 4 C 1.2783 2.2726 0.0 0
M  V30 5 C -1.3257 2.2726 0.0 0
M  V30 6 C 1.2783 -2.2253 0.0 0
M  V30 7 O 2.5685 1.5387 0.0 0
M  V30 8 C 1.2665 3.7877 0.0 0
M  V30 9 C -1.3375 3.7877 0.0 0
M  V30 10 C 2.5685 -2.9591 0.0 0
M  V30 11 C -0.0355 -2.9591 0.0 0
M  V30 12 C 3.8587 2.2963 0.0 0
M  V30 13 C -0.0473 4.5453 0.0 0
M  V30 14 C -2.6514 4.5453 0.0 0
M  V30 15 C 2.5567 -4.4506 0.0 0
M  V30 16 C -0.0473 -4.4506 0.0 0
M  V30 17 C 5.149 1.5624 0.0 0
M  V30 18 N -3.9653 3.8114 0.0 0
M  V30 19 C 1.2428 -5.1963 0.0 0
M  V30 20 C 6.4392 2.32 0.0 0
M  V30 21 C 5.1371 0.071 0.0 0
M  V30 22 C -5.2792 4.5689 0.0 0 CFG=2
M  V30 23 C 7.7294 1.5861 0.0 0
M  V30 24 C 6.4273 -0.6628 0.0 0
M  V30 25 C -5.291 6.0841 0.0 0
M  V30 26 C -6.593 3.8351 0.0 0
M  V30 27 C 7.7175 0.0946 0.0 0
M  V30 28 O -4.0008 6.8416 0.0 0
M  V30 29 C -7.9069 4.5926 0.0 0
M  V30 END ATOM
M  V30 BEGIN BOND
M  V30 1 1 1 2
M  V30 2 1 1 3
M  V30 3 2 2 4
M  V30 4 1 2 5
M  V30 5 1 3 6
M  V30 6 1 4 7
M  V30 7 1 4 8
M  V30 8 2 5 9
M  V30 9 2 6 10
M  V30 10 1 6 11
M  V30 11 1 7 12
M  V30 12 2 8 13
M  V30 13 1 9 14
M  V30 14 1 10 15
M  V30 15 2 11 16
M  V30 16 1 12 17
M  V30 17 1 14 18
M  V30 18 2 15 19
M  V30 19 2 17 20
M  V30 20 1 17 21
M  V30 21 1 22 18 CFG=1
M  V30 22 1 20 23
M  V30 23 2 21 24
M  V30 24 1 22 25
M  V30 25 1 22 26
M  V30 26 2 23 27
M  V30 27 1 25 28
M  V30 28 1 26 29
M  V30 29 1 9 13
M  V30 30 1 16 19
M  V30 31 1 24 27
M  V30 END BOND
M  V30 BEGIN COLLECTION
M  V30 MDLV30/STERAC1 ATOMS=(1 22)
M  V30 END COLLECTION
M  V30 END CTAB
M  END
>  <Structure No>
699

>  <Catalog ID>
Z86134003

>  <MW (desalted)>
391.503

>  <ClogP>
4.950

>  <HBD>
2

>  <TPSA>
50.720

>  <RotBonds>
11

>  <Target>
ATM

>  <fromRegid>


>  <Similarity>


$$$$
Compound 700
Actelion Java MolfileCreator 2.0

  0  0  0  0  0  0              0 V3000
M  V30 BEGIN CTAB
M  V30 COUNTS 33 36 0 0 0
M  V30 BEGIN ATOM
M  V30 1 Cl 0.0 0.0 0.0 0
M  V30 2 C -1.3051 0.7525 0.0 0
M  V30 3 C -2.6103 0.0117 0.0 0
M  V30 4 C -1.3169 2.2575 0.0 0
M  V30 5 C -3.9154 0.7642 0.0 0
M  V30 6 C -2.622 3.0101 0.0 0
M  V30 7 C -5.2206 0.0235 0.0 0
M  V30 8 C -3.9272 2.2693 0.0 0
M  V30 9 O -5.2324 -1.458 0.0 0
M  V30 10 N -6.5258 0.776 0.0 0
M  V30 11 N -5.2324 3.0218 0.0 0
M  V30 12 C -6.5375 2.281 0.0 0
M  V30 13 C -7.8309 0.0352 0.0 0
M  V30 14 S -7.8427 3.0336 0.0 0
M  V30 15 C -9.1361 0.7878 0.0 0
M  V30 16 C -7.8427 -1.4462 0.0 0
M  V30 17 C -7.8544 4.5386 0.0 0
M  V30 18 F -9.1478 2.2928 0.0 0
M  V30 19 C -10.4412 0.047 0.0 0
M  V30 20 C -9.1478 -2.187 0.0 0
M  V30 21 C -6.5728 5.2911 0.0 0
M  V30 22 C -10.453 -1.4345 0.0 0
M  V30 23 O -5.2911 4.5621 0.0 0
M  V30 24 N -6.5845 6.7962 0.0 0
M  V30 25 F -11.7582 -2.1752 0.0 0
M  V30 26 C -5.3029 7.5487 0.0 0
M  V30 27 C -7.8897 7.5487 0.0 0
M  V30 28 C -5.3147 9.0538 0.0 0
M  V30 29 C -7.9015 9.0538 0.0 0
M  V30 30 C -6.6198 9.8181 0.0 0
M  V30 31 C -6.6316 11.3231 0.0 0
M  V30 32 O -5.3499 12.0756 0.0 0
M  V30 33 N -7.9367 12.0756 0.0 0
M  V30 END ATOM
M  V30 BEGIN BOND
M  V30 1 1 1 2
M  V30 2 2 2 3
M  V30 3 1 2 4
M  V30 4 1 3 5
M  V30 5 2 4 6
M  V30 6 1 5 7
M  V30 7 2 5 8
M  V30 8 2 7 9
M  V30 9 1 7 10
M  V30 10 1 8 11
M  V30 11 1 10 12
M  V30 12 1 10 13
M  V30 13 1 12 14
M  V30 14 2 13 15
M  V30 15 1 13 16
M  V30 16 1 14 17
M  V30 17 1 15 18
M  V30 18 1 15 19
M  V30 19 2 16 20
M  V30 20 1 17 21
M  V30 21 2 19 22
M  V30 22 2 21 23
M  V30 23 1 21 24
M  V30 24 1 22 25
M  V30 25 1 24 26
M  V30 26 1 24 27
M  V30 27 1 26 28
M  V30 28 1 27 29
M  V30 29 1 28 30
M  V30 30 1 30 31
M  V30 31 2 31 32
M  V30 32 1 31 33
M  V30 33 1 6 8
M  V30 34 2 11 12
M  V30 35 1 20 22
M  V30 36 1 29 30
M  V30 END BOND
M  V30 END CTAB
M  END
>  <Structure No>
700

>  <Catalog ID>
Z16708902

>  <MW (desalted)>
492.926

>  <ClogP>
2.270

>  <HBD>
1

>  <TPSA>
96.070

>  <RotBonds>
4

>  <Target>
Serine/threonine-protein kinase Chk1

>  <fromRegid>
CHEMBL461264

>  <Similarity>
0.85

$$$$
Compound 701
Actelion Java MolfileCreator 2.0

  0  0  0  0  0  0              0 V3000
M  V30 BEGIN CTAB
M  V30 COUNTS 25 27 0 0 0
M  V30 BEGIN ATOM
M  V30 1 S 0.0 0.0 0.0 0
M  V30 2 C 1.4196 0.4732 0.0 0
M  V30 3 C -0.8991 1.2303 0.0 0
M  V30 4 N 2.7091 -0.2602 0.0 0
M  V30 5 C 1.4078 1.9874 0.0 0
M  V30 6 C -0.0236 2.4607 0.0 0
M  V30 7 C -2.4133 1.2421 0.0 0
M  V30 8 C 3.9986 0.4968 0.0 0
M  V30 9 C 2.6973 2.7446 0.0 0
M  V30 10 C -0.4968 3.904 0.0 0
M  V30 11 S 5.2881 -0.2366 0.0 0
M  V30 12 N 3.9868 2.0111 0.0 0
M  V30 13 O 2.6854 4.2589 0.0 0
M  V30 14 C 6.5776 0.5205 0.0 0
M  V30 15 C 5.2763 2.7683 0.0 0
M  V30 16 C 7.8671 -0.2129 0.0 0
M  V30 17 O 7.8553 -1.7035 0.0 0
M  V30 18 N 9.1566 0.5441 0.0 0
M  V30 19 C 10.4461 -0.1892 0.0 0
M  V30 20 C 9.1448 2.0584 0.0 0
M  V30 21 C 11.7357 0.5678 0.0 0
M  V30 22 C 10.4343 2.8156 0.0 0
M  V30 23 O 11.7238 2.0821 0.0 0
M  V30 24 C 13.0252 -0.1656 0.0 0
M  V30 25 C 10.4225 4.3299 0.0 0
M  V30 END ATOM
M  V30 BEGIN BOND
M  V30 1 1 1 2
M  V30 2 1 1 3
M  V30 3 1 2 4
M  V30 4 2 2 5
M  V30 5 2 3 6
M  V30 6 1 3 7
M  V30 7 2 4 8
M  V30 8 1 5 9
M  V30 9 1 6 10
M  V30 10 1 8 11
M  V30 11 1 8 12
M  V30 12 2 9 13
M  V30 13 1 11 14
M  V30 14 1 12 15
M  V30 15 1 14 16
M  V30 16 2 16 17
M  V30 17 1 16 18
M  V30 18 1 18 19
M  V30 19 1 18 20
M  V30 20 1 19 21
M  V30 21 1 20 22
M  V30 22 1 21 23
M  V30 23 1 21 24
M  V30 24 1 22 25
M  V30 25 1 5 6
M  V30 26 1 9 12
M  V30 27 1 22 23
M  V30 END BOND
M  V30 END CTAB
M  END
>  <Structure No>
701

>  <Catalog ID>
Z16722690

>  <MW (desalted)>
381.513

>  <ClogP>
2.667

>  <HBD>
0

>  <TPSA>
62.210

>  <RotBonds>
3

>  <Target>
Poly [ADP-ribose] polymerase-1

>  <fromRegid>
CHEMBL2440886

>  <Similarity>
0.88

$$$$
Compound 702
Actelion Java MolfileCreator 2.0

  0  0  0  0  0  0              0 V3000
M  V30 BEGIN CTAB
M  V30 COUNTS 27 30 0 0 0
M  V30 BEGIN ATOM
M  V30 1 O 0.0 0.0 0.0 0
M  V30 2 C -0.0117 -1.4866 0.0 0
M  V30 3 N -1.3214 -2.2299 0.0 0
M  V30 4 N 1.2742 -2.2299 0.0 0
M  V30 5 C -2.631 -1.463 0.0 0
M  V30 6 C 2.5602 -1.463 0.0 0
M  V30 7 C -3.9406 -2.2063 0.0 0
M  V30 8 C 3.8463 -2.2063 0.0 0
M  V30 9 N -5.2503 -1.4394 0.0 0
M  V30 10 C 5.1323 -1.4394 0.0 0
M  V30 11 C -5.2621 0.0707 0.0 0
M  V30 12 C -6.5599 -2.1827 0.0 0
M  V30 13 C 6.4891 -2.0411 0.0 0
M  V30 14 C 5.2739 0.0589 0.0 0
M  V30 15 C -6.5717 0.8258 0.0 0
M  V30 16 C -7.8695 -1.4158 0.0 0
M  V30 17 C 7.4802 -0.9202 0.0 0
M  V30 18 C 6.9375 -3.4569 0.0 0
M  V30 19 N 6.7251 0.3775 0.0 0
M  V30 20 C -7.8813 0.0943 0.0 0
M  V30 21 C -6.5835 2.336 0.0 0
M  V30 22 C 8.9314 -1.2152 0.0 0
M  V30 23 C 8.3887 -3.7519 0.0 0
M  V30 24 C -9.191 0.8494 0.0 0
M  V30 25 C -7.8931 3.0912 0.0 0
M  V30 26 C 9.3797 -2.631 0.0 0
M  V30 27 C -9.2028 2.3596 0.0 0
M  V30 END ATOM
M  V30 BEGIN BOND
M  V30 1 2 1 2
M  V30 2 1 2 3
M  V30 3 1 2 4
M  V30 4 1 3 5
M  V30 5 1 4 6
M  V30 6 1 5 7
M  V30 7 1 6 8
M  V30 8 1 7 9
M  V30 9 1 8 10
M  V30 10 1 9 11
M  V30 11 1 9 12
M  V30 12 1 10 13
M  V30 13 2 10 14
M  V30 14 1 11 15
M  V30 15 1 12 16
M  V30 16 2 13 17
M  V30 17 1 13 18
M  V30 18 1 14 19
M  V30 19 2 15 20
M  V30 20 1 15 21
M  V30 21 1 17 22
M  V30 22 2 18 23
M  V30 23 1 20 24
M  V30 24 2 21 25
M  V30 25 2 22 26
M  V30 26 2 24 27
M  V30 27 1 16 20
M  V30 28 1 17 19
M  V30 29 1 23 26
M  V30 30 1 25 27
M  V30 END BOND
M  V30 END CTAB
M  END
>  <Structure No>
702

>  <Catalog ID>
Z332571766

>  <MW (desalted)>
362.468

>  <ClogP>
3.893

>  <HBD>
3

>  <TPSA>
60.160

>  <RotBonds>
6

>  <Target>
Poly [ADP-ribose] polymerase-1

>  <fromRegid>
CHEMBL559043

>  <Similarity>
0.86

$$$$
Compound 703
Actelion Java MolfileCreator 2.0

  0  0  0  0  0  0              0 V3000
M  V30 BEGIN CTAB
M  V30 COUNTS 24 27 0 0 0
M  V30 BEGIN ATOM
M  V30 1 S 0.0 0.0 0.0 0
M  V30 2 C -1.2363 -0.8477 0.0 0
M  V30 3 C 1.1774 -0.8948 0.0 0
M  V30 4 N -2.7081 -0.4945 0.0 0
M  V30 5 C -0.8124 -2.2724 0.0 0
M  V30 6 C 0.6711 -2.296 0.0 0
M  V30 7 C 2.661 -0.9184 0.0 0
M  V30 8 C -3.7442 -1.5777 0.0 0
M  V30 9 C -1.8485 -3.3557 0.0 0
M  V30 10 C 1.8485 -3.1908 0.0 0
M  V30 11 C 3.0848 -2.3431 0.0 0
M  V30 12 S -5.216 -1.2245 0.0 0
M  V30 13 N -3.3203 -3.0024 0.0 0
M  V30 14 O -1.4247 -4.7804 0.0 0
M  V30 15 C -5.6634 0.2237 0.0 0
M  V30 16 C -4.3565 -4.0857 0.0 0
M  V30 17 C -7.1353 0.5769 0.0 0
M  V30 18 O -8.1714 -0.5063 0.0 0
M  V30 19 N -7.5827 2.0252 0.0 0
M  V30 20 C -9.0545 2.3784 0.0 0
M  V30 21 C -6.5701 3.1319 0.0 0
M  V30 22 C -9.5019 3.8266 0.0 0
M  V30 23 C -7.0175 4.5802 0.0 0
M  V30 24 O -8.4893 4.9334 0.0 0
M  V30 END ATOM
M  V30 BEGIN BOND
M  V30 1 1 1 2
M  V30 2 1 1 3
M  V30 3 1 2 4
M  V30 4 2 2 5
M  V30 5 2 3 6
M  V30 6 1 3 7
M  V30 7 2 4 8
M  V30 8 1 5 9
M  V30 9 1 6 10
M  V30 10 1 7 11
M  V30 11 1 8 12
M  V30 12 1 8 13
M  V30 13 2 9 14
M  V30 14 1 12 15
M  V30 15 1 13 16
M  V30 16 1 15 17
M  V30 17 2 17 18
M  V30 18 1 17 19
M  V30 19 1 19 20
M  V30 20 1 19 21
M  V30 21 1 20 22
M  V30 22 1 21 23
M  V30 23 1 22 24
M  V30 24 1 5 6
M  V30 25 1 9 13
M  V30 26 1 10 11
M  V30 27 1 23 24
M  V30 END BOND
M  V30 END CTAB
M  END
>  <Structure No>
703

>  <Catalog ID>
Z16746675

>  <MW (desalted)>
365.470

>  <ClogP>
1.694

>  <HBD>
0

>  <TPSA>
62.210

>  <RotBonds>
3

>  <Target>
Poly [ADP-ribose] polymerase-1

>  <fromRegid>
CHEMBL2440673

>  <Similarity>
0.93

$$$$
Compound 704
Actelion Java MolfileCreator 2.0

  0  0  0  0  0  0              0 V3000
M  V30 BEGIN CTAB
M  V30 COUNTS 23 24 0 0 0
M  V30 BEGIN ATOM
M  V30 1 S 0.0 0.0 0.0 0
M  V30 2 C 1.4201 0.4733 0.0 0
M  V30 3 C -0.8994 1.2307 0.0 0
M  V30 4 N 2.71 -0.2603 0.0 0
M  V30 5 C 1.4082 1.9881 0.0 0
M  V30 6 C -0.0236 2.4615 0.0 0
M  V30 7 C -2.4142 1.2426 0.0 0
M  V30 8 C 4.0 0.497 0.0 0
M  V30 9 C 2.6982 2.7455 0.0 0
M  V30 10 C -0.497 3.9053 0.0 0
M  V30 11 S 5.2899 -0.2366 0.0 0
M  V30 12 N 3.9881 2.0118 0.0 0
M  V30 13 O 2.6863 4.2603 0.0 0
M  V30 14 C 6.5798 0.5207 0.0 0
M  V30 15 C 5.2781 2.7692 0.0 0
M  V30 16 C 7.8698 -0.213 0.0 0
M  V30 17 C 5.2662 4.284 0.0 0
M  V30 18 O 7.858 -1.7041 0.0 0
M  V30 19 N 9.1597 0.5443 0.0 0
M  V30 20 C 10.4497 -0.1893 0.0 0
M  V30 21 C 11.7396 0.568 0.0 0
M  V30 22 O 13.0296 -0.1656 0.0 0
M  V30 23 C 14.3195 0.5917 0.0 0
M  V30 END ATOM
M  V30 BEGIN BOND
M  V30 1 1 1 2
M  V30 2 1 1 3
M  V30 3 1 2 4
M  V30 4 2 2 5
M  V30 5 2 3 6
M  V30 6 1 3 7
M  V30 7 2 4 8
M  V30 8 1 5 9
M  V30 9 1 6 10
M  V30 10 1 8 11
M  V30 11 1 8 12
M  V30 12 2 9 13
M  V30 13 1 11 14
M  V30 14 1 12 15
M  V30 15 1 14 16
M  V30 16 1 15 17
M  V30 17 2 16 18
M  V30 18 1 16 19
M  V30 19 1 19 20
M  V30 20 1 20 21
M  V30 21 1 21 22
M  V30 22 1 22 23
M  V30 23 1 5 6
M  V30 24 1 9 12
M  V30 END BOND
M  V30 END CTAB
M  END
>  <Structure No>
704

>  <Catalog ID>
Z16780475

>  <MW (desalted)>
355.476

>  <ClogP>
2.044

>  <HBD>
1

>  <TPSA>
71.000

>  <RotBonds>
7

>  <Target>
Poly [ADP-ribose] polymerase-1

>  <fromRegid>
CHEMBL2440886

>  <Similarity>
0.91

$$$$
Compound 705
Actelion Java MolfileCreator 2.0

  0  0  0  0  0  0              0 V3000
M  V30 BEGIN CTAB
M  V30 COUNTS 26 28 0 0 0
M  V30 BEGIN ATOM
M  V30 1 O 0.0 0.0 0.0 0
M  V30 2 C -0.0118 -1.4931 0.0 0
M  V30 3 N -1.3272 -2.2396 0.0 0
M  V30 4 N 1.2798 -2.2396 0.0 0
M  V30 5 C -2.6426 -1.4812 0.0 0
M  V30 6 C 2.5715 -1.4812 0.0 0
M  V30 7 C -3.9579 -2.2278 0.0 0
M  V30 8 C -2.6544 0.0355 0.0 0
M  V30 9 C 3.8631 -2.2278 0.0 0 CFG=2
M  V30 10 C -5.2733 -1.4694 0.0 0
M  V30 11 C -3.9698 -3.7209 0.0 0
M  V30 12 C -3.9698 0.7939 0.0 0
M  V30 13 O 3.8513 -3.7209 0.0 0
M  V30 14 C 5.1548 -1.4694 0.0 0
M  V30 15 C -5.2852 0.0474 0.0 0
M  V30 16 N 6.4465 -2.2159 0.0 0
M  V30 17 C -6.6005 0.8058 0.0 0
M  V30 18 C 6.4346 -3.7091 0.0 0
M  V30 19 C 7.7382 -1.4575 0.0 0
M  V30 20 C 7.7263 -4.4438 0.0 0
M  V30 21 C 9.0298 -2.2041 0.0 0
M  V30 22 C 9.018 -3.6854 0.0 0
M  V30 23 C 7.7145 -5.9369 0.0 0
M  V30 24 C 10.3097 -4.4201 0.0 0
M  V30 25 C 9.0061 -6.6716 0.0 0
M  V30 26 C 10.2978 -5.9132 0.0 0
M  V30 END ATOM
M  V30 BEGIN BOND
M  V30 1 2 1 2
M  V30 2 1 2 3
M  V30 3 1 2 4
M  V30 4 1 3 5
M  V30 5 1 4 6
M  V30 6 2 5 7
M  V30 7 1 5 8
M  V30 8 1 6 9
M  V30 9 1 7 10
M  V30 10 1 7 11
M  V30 11 2 8 12
M  V30 12 1 9 13 CFG=1
M  V30 13 1 9 14
M  V30 14 2 10 15
M  V30 15 1 14 16
M  V30 16 1 15 17
M  V30 17 1 16 18
M  V30 18 1 16 19
M  V30 19 1 18 20
M  V30 20 1 19 21
M  V30 21 2 20 22
M  V30 22 1 20 23
M  V30 23 1 22 24
M  V30 24 2 23 25
M  V30 25 2 24 26
M  V30 26 1 12 15
M  V30 27 1 21 22
M  V30 28 1 25 26
M  V30 END BOND
M  V30 BEGIN COLLECTION
M  V30 MDLV30/STERAC1 ATOMS=(1 9)
M  V30 END COLLECTION
M  V30 END CTAB
M  END
>  <Structure No>
705

>  <Catalog ID>
Z409564088

>  <MW (desalted)>
353.458

>  <ClogP>
2.926

>  <HBD>
3

>  <TPSA>
64.600

>  <RotBonds>
5

>  <Target>
ATM

>  <fromRegid>


>  <Similarity>


$$$$
Compound 706
Actelion Java MolfileCreator 2.0

  0  0  0  0  0  0              0 V3000
M  V30 BEGIN CTAB
M  V30 COUNTS 22 24 0 0 0
M  V30 BEGIN ATOM
M  V30 1 O 0.0 0.0 0.0 0
M  V30 2 C -0.3188 -1.4525 0.0 0
M  V30 3 N -1.7005 -2.0548 0.0 0
M  V30 4 C 0.6731 -2.5508 0.0 0
M  V30 5 C -1.5588 -3.531 0.0 0
M  V30 6 C -3.0113 -1.299 0.0 0
M  V30 7 C -0.0944 -3.838 0.0 0
M  V30 8 C 2.1611 -2.539 0.0 0
M  V30 9 O -2.6807 -4.5229 0.0 0
M  V30 10 C -4.3222 -2.0312 0.0 0
M  V30 11 C 0.6495 -5.1252 0.0 0
M  V30 12 C 2.9051 -3.8262 0.0 0
M  V30 13 C -5.633 -1.2754 0.0 0
M  V30 14 C 2.1375 -5.1134 0.0 0
M  V30 15 C -6.9439 -2.0075 0.0 0
M  V30 16 N -8.2547 -1.2517 0.0 0
M  V30 17 C -8.2665 0.2598 0.0 0
M  V30 18 C -9.5656 -1.9839 0.0 0
M  V30 19 C -9.5774 1.0156 0.0 0
M  V30 20 C -10.8764 -1.2281 0.0 0
M  V30 21 C -10.8882 0.2716 0.0 0
M  V30 22 C -12.1991 1.0274 0.0 0
M  V30 END ATOM
M  V30 BEGIN BOND
M  V30 1 2 1 2
M  V30 2 1 2 3
M  V30 3 1 2 4
M  V30 4 1 3 5
M  V30 5 1 3 6
M  V30 6 2 4 7
M  V30 7 1 4 8
M  V30 8 2 5 9
M  V30 9 1 6 10
M  V30 10 1 7 11
M  V30 11 2 8 12
M  V30 12 1 10 13
M  V30 13 2 11 14
M  V30 14 1 13 15
M  V30 15 1 15 16
M  V30 16 1 16 17
M  V30 17 1 16 18
M  V30 18 1 17 19
M  V30 19 1 18 20
M  V30 20 1 19 21
M  V30 21 1 21 22
M  V30 22 1 5 7
M  V30 23 1 12 14
M  V30 24 1 20 21
M  V30 END BOND
M  V30 END CTAB
M  END
>  <Structure No>
706

>  <Catalog ID>
Z138290104

>  <MW (desalted)>
300.395

>  <ClogP>
3.608

>  <HBD>
0

>  <TPSA>
40.620

>  <RotBonds>
5

>  <Target>
Poly [ADP-ribose] polymerase-1

>  <fromRegid>
CHEMBL598088

>  <Similarity>
0.88

$$$$
Compound 707
Actelion Java MolfileCreator 2.0

  0  0  0  0  0  0              0 V3000
M  V30 BEGIN CTAB
M  V30 COUNTS 31 35 0 0 0
M  V30 BEGIN ATOM
M  V30 1 Cl 0.0 0.0 0.0 0
M  V30 2 C -1.5055 0.1659 0.0 0
M  V30 3 C -2.4065 -1.0432 0.0 0
M  V30 4 C -2.1339 1.553 0.0 0
M  V30 5 O -1.8019 -2.4065 0.0 0
M  V30 6 C -3.9121 -0.8772 0.0 0
M  V30 7 C -3.6394 1.7189 0.0 0
M  V30 8 C -0.32 -2.5488 0.0 0
M  V30 9 C -4.5404 0.5097 0.0 0
M  V30 10 C 0.2845 -3.9121 0.0 0
M  V30 11 N -0.486 -5.2043 0.0 0
M  V30 12 N 1.7426 -4.2085 0.0 0
M  V30 13 N 0.5097 -6.3068 0.0 0
M  V30 14 C 1.8849 -5.6904 0.0 0
M  V30 15 C 2.8452 -3.189 0.0 0
M  V30 16 S 3.1771 -6.4254 0.0 0
M  V30 17 C 3.2956 -1.7426 0.0 0
M  V30 18 C 4.3033 -2.8689 0.0 0
M  V30 19 C 4.4693 -5.6667 0.0 0 CFG=2
M  V30 20 C 5.7615 -6.4017 0.0 0
M  V30 21 C 4.4574 -4.1492 0.0 0
M  V30 22 N 7.0537 -5.6429 0.0 0
M  V30 23 N 5.7496 -7.8954 0.0 0
M  V30 24 C 8.3459 -6.378 0.0 0
M  V30 25 C 7.0418 -8.6423 0.0 0
M  V30 26 C 8.334 -7.8717 0.0 0
M  V30 27 C 9.6381 -5.6192 0.0 0
M  V30 28 O 7.03 -10.136 0.0 0
M  V30 29 C 9.6262 -8.6186 0.0 0
M  V30 30 C 10.9303 -6.3542 0.0 0
M  V30 31 C 10.9184 -7.848 0.0 0
M  V30 END ATOM
M  V30 BEGIN BOND
M  V30 1 1 1 2
M  V30 2 2 2 3
M  V30 3 1 2 4
M  V30 4 1 3 5
M  V30 5 1 3 6
M  V30 6 2 4 7
M  V30 7 1 5 8
M  V30 8 2 6 9
M  V30 9 1 8 10
M  V30 10 2 10 11
M  V30 11 1 10 12
M  V30 12 1 11 13
M  V30 13 1 12 14
M  V30 14 1 12 15
M  V30 15 1 14 16
M  V30 16 1 15 17
M  V30 17 1 15 18
M  V30 18 1 19 16 CFG=1
M  V30 19 1 19 20
M  V30 20 1 19 21
M  V30 21 2 20 22
M  V30 22 1 20 23
M  V30 23 1 22 24
M  V30 24 1 23 25
M  V30 25 2 24 26
M  V30 26 1 24 27
M  V30 27 2 25 28
M  V30 28 1 26 29
M  V30 29 2 27 30
M  V30 30 2 29 31
M  V30 31 1 7 9
M  V30 32 2 13 14
M  V30 33 1 17 18
M  V30 34 1 25 26
M  V30 35 1 30 31
M  V30 END BOND
M  V30 BEGIN COLLECTION
M  V30 MDLV30/STERAC1 ATOMS=(1 19)
M  V30 END COLLECTION
M  V30 END CTAB
M  END
>  <Structure No>
707

>  <Catalog ID>
Z16825128

>  <MW (desalted)>
453.945

>  <ClogP>
2.683

>  <HBD>
1

>  <TPSA>
81.400

>  <RotBonds>
7

>  <Target>
parp10

>  <fromRegid>


>  <Similarity>


$$$$
Compound 708
Actelion Java MolfileCreator 2.0

  0  0  0  0  0  0              0 V3000
M  V30 BEGIN CTAB
M  V30 COUNTS 24 25 0 0 0
M  V30 BEGIN ATOM
M  V30 1 F 0.0 0.0 0.0 0
M  V30 2 C 1.2962 -0.7373 0.0 0
M  V30 3 F 0.5351 -2.0335 0.0 0
M  V30 4 F 2.0454 0.5827 0.0 0
M  V30 5 C 2.5924 -1.4865 0.0 0
M  V30 6 C 2.5805 -2.9849 0.0 0
M  V30 7 C 3.8887 -0.7135 0.0 0
M  V30 8 C 3.8768 -3.7222 0.0 0
M  V30 9 C 5.1849 -1.4627 0.0 0
M  V30 10 C 5.173 -2.9611 0.0 0
M  V30 11 N 6.4692 -3.6984 0.0 0
M  V30 12 C 7.7655 -2.9373 0.0 0
M  V30 13 O 7.7536 -1.4151 0.0 0
M  V30 14 N 9.0617 -3.6746 0.0 0
M  V30 15 C 10.3579 -2.9135 0.0 0
M  V30 16 C 11.6542 -3.6508 0.0 0 CFG=2
M  V30 17 O 11.6423 -5.1492 0.0 0
M  V30 18 C 12.9504 -2.8897 0.0 0
M  V30 19 N 14.2467 -3.627 0.0 0
M  V30 20 C 15.5429 -2.8659 0.0 0
M  V30 21 C 14.2348 -5.1254 0.0 0
M  V30 22 C 16.8391 -3.6032 0.0 0
M  V30 23 C 15.531 -5.8746 0.0 0
M  V30 24 C 16.8272 -5.1016 0.0 0
M  V30 END ATOM
M  V30 BEGIN BOND
M  V30 1 1 1 2
M  V30 2 1 2 3
M  V30 3 1 2 4
M  V30 4 1 2 5
M  V30 5 2 5 6
M  V30 6 1 5 7
M  V30 7 1 6 8
M  V30 8 2 7 9
M  V30 9 2 8 10
M  V30 10 1 10 11
M  V30 11 1 11 12
M  V30 12 2 12 13
M  V30 13 1 12 14
M  V30 14 1 14 15
M  V30 15 1 15 16
M  V30 16 1 16 17 CFG=1
M  V30 17 1 16 18
M  V30 18 1 18 19
M  V30 19 1 19 20
M  V30 20 1 19 21
M  V30 21 1 20 22
M  V30 22 1 21 23
M  V30 23 1 22 24
M  V30 24 1 9 10
M  V30 25 1 23 24
M  V30 END BOND
M  V30 BEGIN COLLECTION
M  V30 MDLV30/STERAC1 ATOMS=(1 16)
M  V30 END COLLECTION
M  V30 END CTAB
M  END
>  <Structure No>
708

>  <Catalog ID>
Z409948072

>  <MW (desalted)>
345.360

>  <ClogP>
3.240

>  <HBD>
3

>  <TPSA>
64.600

>  <RotBonds>
6

>  <Target>
ATM

>  <fromRegid>


>  <Similarity>


$$$$
Compound 709
Actelion Java MolfileCreator 2.0

  0  0  0  0  0  0              0 V3000
M  V30 BEGIN CTAB
M  V30 COUNTS 24 26 0 0 0
M  V30 BEGIN ATOM
M  V30 1 O 0.0 0.0 0.0 0
M  V30 2 C -0.0118 -1.4955 0.0 0
M  V30 3 N -1.3293 -2.2432 0.0 0
M  V30 4 N 1.2818 -2.2432 0.0 0
M  V30 5 C -2.6468 -1.4836 0.0 0
M  V30 6 C 2.5755 -1.4836 0.0 0
M  V30 7 C -3.9642 -2.2313 0.0 0
M  V30 8 C 3.8693 -2.2313 0.0 0 CFG=2
M  V30 9 N -5.3529 -1.6023 0.0 0
M  V30 10 C -4.1304 -3.715 0.0 0
M  V30 11 O 3.8574 -3.7269 0.0 0
M  V30 12 C 5.163 -1.4717 0.0 0
M  V30 13 N -6.3737 -2.7061 0.0 0
M  V30 14 C -5.614 -4.0117 0.0 0
M  V30 15 N 6.4568 -2.2195 0.0 0
M  V30 16 C 6.4449 -3.715 0.0 0
M  V30 17 C 7.7505 -1.4599 0.0 0
M  V30 18 C 7.7386 -4.4509 0.0 0
M  V30 19 C 9.0442 -2.2076 0.0 0
M  V30 20 C 9.0324 -3.6912 0.0 0
M  V30 21 C 7.7267 -5.9464 0.0 0
M  V30 22 C 10.3261 -4.4271 0.0 0
M  V30 23 C 9.0205 -6.6823 0.0 0
M  V30 24 C 10.3142 -5.9226 0.0 0
M  V30 END ATOM
M  V30 BEGIN BOND
M  V30 1 2 1 2
M  V30 2 1 2 3
M  V30 3 1 2 4
M  V30 4 1 3 5
M  V30 5 1 4 6
M  V30 6 1 5 7
M  V30 7 1 6 8
M  V30 8 2 7 9
M  V30 9 1 7 10
M  V30 10 1 8 11 CFG=1
M  V30 11 1 8 12
M  V30 12 1 9 13
M  V30 13 2 10 14
M  V30 14 1 12 15
M  V30 15 1 15 16
M  V30 16 1 15 17
M  V30 17 1 16 18
M  V30 18 1 17 19
M  V30 19 2 18 20
M  V30 20 1 18 21
M  V30 21 1 20 22
M  V30 22 2 21 23
M  V30 23 2 22 24
M  V30 24 1 13 14
M  V30 25 1 19 20
M  V30 26 1 23 24
M  V30 END BOND
M  V30 BEGIN COLLECTION
M  V30 MDLV30/STERAC1 ATOMS=(1 8)
M  V30 END COLLECTION
M  V30 END CTAB
M  END
>  <Structure No>
709

>  <Catalog ID>
Z511021348

>  <MW (desalted)>
329.397

>  <ClogP>
0.812

>  <HBD>
4

>  <TPSA>
93.280

>  <RotBonds>
6

>  <Target>
CHK1

>  <fromRegid>


>  <Similarity>


$$$$
Compound 710
Actelion Java MolfileCreator 2.0

  0  0  0  0  0  0              0 V3000
M  V30 BEGIN CTAB
M  V30 COUNTS 26 28 0 0 0
M  V30 BEGIN ATOM
M  V30 1 O 0.0 0.0 0.0 0
M  V30 2 C 1.0944 1.012 0.0 0
M  V30 3 N 0.9297 2.5067 0.0 0
M  V30 4 N 2.542 0.7178 0.0 0
M  V30 5 C -0.3765 3.2598 0.0 0
M  V30 6 C 2.283 3.1304 0.0 0
M  V30 7 C 3.2716 2.0241 0.0 0
M  V30 8 C -1.6829 2.5302 0.0 0
M  V30 9 C -0.3883 4.7662 0.0 0
M  V30 10 C -2.9892 3.2834 0.0 0
M  V30 11 C -1.6946 5.5194 0.0 0
M  V30 12 N -4.2955 2.5537 0.0 0
M  V30 13 C -3.0009 4.7898 0.0 0
M  V30 14 C -5.6018 3.3069 0.0 0
M  V30 15 O -5.6135 4.8133 0.0 0
M  V30 16 N -6.9081 2.5773 0.0 0
M  V30 17 C -8.2144 3.3305 0.0 0
M  V30 18 C -9.5207 2.6008 0.0 0
M  V30 19 N -10.827 3.354 0.0 0
M  V30 20 C -9.5325 1.118 0.0 0
M  V30 21 C -10.8388 4.8604 0.0 0
M  V30 22 C -12.1333 2.6243 0.0 0
M  V30 23 C -12.1451 5.6135 0.0 0
M  V30 24 C -13.4396 3.3775 0.0 0
M  V30 25 C -13.4514 4.8839 0.0 0
M  V30 26 C -12.1569 7.1199 0.0 0
M  V30 END ATOM
M  V30 BEGIN BOND
M  V30 1 2 1 2
M  V30 2 1 2 3
M  V30 3 1 2 4
M  V30 4 1 3 5
M  V30 5 1 3 6
M  V30 6 1 4 7
M  V30 7 2 5 8
M  V30 8 1 5 9
M  V30 9 1 8 10
M  V30 10 2 9 11
M  V30 11 1 10 12
M  V30 12 2 10 13
M  V30 13 1 12 14
M  V30 14 2 14 15
M  V30 15 1 14 16
M  V30 16 1 16 17
M  V30 17 1 17 18
M  V30 18 1 18 19
M  V30 19 1 18 20
M  V30 20 1 19 21
M  V30 21 1 19 22
M  V30 22 1 21 23
M  V30 23 1 22 24
M  V30 24 1 23 25
M  V30 25 1 23 26
M  V30 26 1 6 7
M  V30 27 1 11 13
M  V30 28 1 24 25
M  V30 END BOND
M  V30 END CTAB
M  END
>  <Structure No>
710

>  <Catalog ID>
Z433450946

>  <MW (desalted)>
359.466

>  <ClogP>
1.893

>  <HBD>
3

>  <TPSA>
76.710

>  <RotBonds>
5

>  <Target>
CHK1

>  <fromRegid>


>  <Similarity>


$$$$
Compound 711
Actelion Java MolfileCreator 2.0

  0  0  0  0  0  0              0 V3000
M  V30 BEGIN CTAB
M  V30 COUNTS 31 34 0 0 0
M  V30 BEGIN ATOM
M  V30 1 S 0.0 0.0 0.0 0
M  V30 2 C 1.4163 -0.4485 0.0 0
M  V30 3 C -0.897 -1.2038 0.0 0
M  V30 4 N 2.7028 0.3068 0.0 0
M  V30 5 C 1.4045 -1.9356 0.0 0
M  V30 6 C -0.0236 -2.4077 0.0 0
M  V30 7 C -2.4077 -1.192 0.0 0
M  V30 8 C 3.9893 -0.4249 0.0 0
M  V30 9 C 2.691 -2.6792 0.0 0
M  V30 10 C -0.4957 -3.8241 0.0 0
M  V30 11 N 3.9775 -1.912 0.0 0
M  V30 12 C 5.2758 0.3304 0.0 0
M  V30 13 O 2.6792 -4.1663 0.0 0
M  V30 14 S 5.264 1.8412 0.0 0
M  V30 15 C 6.5505 2.5966 0.0 0
M  V30 16 C 6.5387 4.1073 0.0 0
M  V30 17 N 7.7426 5.0043 0.0 0
M  V30 18 C 5.3112 5.0043 0.0 0
M  V30 19 C 7.2705 6.4443 0.0 0
M  V30 20 S 5.7597 6.4443 0.0 0
M  V30 21 C 8.1439 7.6718 0.0 0
M  V30 22 C 9.6192 7.5301 0.0 0
M  V30 23 O 10.2212 6.1728 0.0 0
M  V30 24 N 10.4926 8.7576 0.0 0
M  V30 25 C 9.8671 10.1385 0.0 0
M  V30 26 C 10.7405 11.366 0.0 0
M  V30 27 C 8.3681 10.3038 0.0 0
M  V30 28 C 10.1149 12.747 0.0 0
M  V30 29 C 12.2158 11.2244 0.0 0
M  V30 30 C 7.7426 11.6847 0.0 0
M  V30 31 C 8.616 12.9122 0.0 0
M  V30 END ATOM
M  V30 BEGIN BOND
M  V30 1 1 1 2
M  V30 2 1 1 3
M  V30 3 1 2 4
M  V30 4 2 2 5
M  V30 5 2 3 6
M  V30 6 1 3 7
M  V30 7 2 4 8
M  V30 8 1 5 9
M  V30 9 1 6 10
M  V30 10 1 8 11
M  V30 11 1 8 12
M  V30 12 2 9 13
M  V30 13 1 12 14
M  V30 14 1 14 15
M  V30 15 1 15 16
M  V30 16 1 16 17
M  V30 17 2 16 18
M  V30 18 2 17 19
M  V30 19 1 18 20
M  V30 20 1 19 21
M  V30 21 1 21 22
M  V30 22 2 22 23
M  V30 23 1 22 24
M  V30 24 1 24 25
M  V30 25 2 25 26
M  V30 26 1 25 27
M  V30 27 1 26 28
M  V30 28 1 26 29
M  V30 29 2 27 30
M  V30 30 2 28 31
M  V30 31 1 5 6
M  V30 32 1 9 11
M  V30 33 1 19 20
M  V30 34 1 30 31
M  V30 END BOND
M  V30 END CTAB
M  END
>  <Structure No>
711

>  <Catalog ID>
Z16858332

>  <MW (desalted)>
470.631

>  <ClogP>
2.338

>  <HBD>
2

>  <TPSA>
83.450

>  <RotBonds>
7

>  <Target>
Tankyrase1

>  <fromRegid>


>  <Similarity>


$$$$
Compound 712
Actelion Java MolfileCreator 2.0

  0  0  0  0  0  0              0 V3000
M  V30 BEGIN CTAB
M  V30 COUNTS 28 30 0 0 0
M  V30 BEGIN ATOM
M  V30 1 Cl 0.0 0.0 0.0 0
M  V30 2 C 1.2943 0.7718 0.0 0
M  V30 3 C 1.2825 2.2919 0.0 0
M  V30 4 C 2.5887 0.0237 0.0 0
M  V30 5 C 2.5769 3.0519 0.0 0
M  V30 6 C -0.0356 3.0519 0.0 0
M  V30 7 C 3.8831 0.7956 0.0 0
M  V30 8 C 3.8713 2.3037 0.0 0
M  V30 9 O 5.1775 0.0475 0.0 0
M  V30 10 N 5.1657 3.0637 0.0 0
M  V30 11 C 5.1657 -1.4487 0.0 0
M  V30 12 C 6.4601 2.3156 0.0 0
M  V30 13 O 6.4482 0.8193 0.0 0
M  V30 14 C 7.7544 3.0756 0.0 0
M  V30 15 S 9.0488 2.3275 0.0 0
M  V30 16 C 10.3432 3.0875 0.0 0
M  V30 17 C 11.6376 2.3394 0.0 0
M  V30 18 N 12.932 3.0994 0.0 0
M  V30 19 N 11.6258 0.8431 0.0 0
M  V30 20 C 14.2264 2.3512 0.0 0
M  V30 21 C 12.9202 0.095 0.0 0
M  V30 22 S 15.6515 2.8262 0.0 0
M  V30 23 C 14.2146 0.855 0.0 0
M  V30 24 O 12.9083 -1.4012 0.0 0
M  V30 25 C 16.5302 1.615 0.0 0
M  V30 26 C 15.6396 0.4037 0.0 0
M  V30 27 C 18.0265 1.6269 0.0 0
M  V30 28 C 16.0908 -1.0212 0.0 0
M  V30 END ATOM
M  V30 BEGIN BOND
M  V30 1 1 1 2
M  V30 2 2 2 3
M  V30 3 1 2 4
M  V30 4 1 3 5
M  V30 5 1 3 6
M  V30 6 2 4 7
M  V30 7 2 5 8
M  V30 8 1 7 9
M  V30 9 1 8 10
M  V30 10 1 9 11
M  V30 11 1 10 12
M  V30 12 2 12 13
M  V30 13 1 12 14
M  V30 14 1 14 15
M  V30 15 1 15 16
M  V30 16 1 16 17
M  V30 17 2 17 18
M  V30 18 1 17 19
M  V30 19 1 18 20
M  V30 20 1 19 21
M  V30 21 1 20 22
M  V30 22 2 20 23
M  V30 23 2 21 24
M  V30 24 1 22 25
M  V30 25 1 23 26
M  V30 26 1 25 27
M  V30 27 1 26 28
M  V30 28 1 7 8
M  V30 29 1 21 23
M  V30 30 2 25 26
M  V30 END BOND
M  V30 END CTAB
M  END
>  <Structure No>
712

>  <Catalog ID>
Z16858566

>  <MW (desalted)>
437.963

>  <ClogP>
3.254

>  <HBD>
2

>  <TPSA>
79.790

>  <RotBonds>
6

>  <Target>
Tankyrase1

>  <fromRegid>


>  <Similarity>


$$$$
Compound 713
Actelion Java MolfileCreator 2.0

  0  0  0  0  0  0              0 V3000
M  V30 BEGIN CTAB
M  V30 COUNTS 30 33 0 0 0
M  V30 BEGIN ATOM
M  V30 1 S 0.0 0.0 0.0 0
M  V30 2 C 1.4197 -0.4495 0.0 0
M  V30 3 C -0.8991 -1.2068 0.0 0
M  V30 4 N 2.7094 0.3076 0.0 0
M  V30 5 C 1.4079 -1.9403 0.0 0
M  V30 6 C -0.0236 -2.4136 0.0 0
M  V30 7 C -2.4136 -1.1949 0.0 0
M  V30 8 C 3.999 -0.4259 0.0 0
M  V30 9 C 2.6975 -2.6857 0.0 0
M  V30 10 C -0.4969 -3.8334 0.0 0
M  V30 11 N 3.9872 -1.9167 0.0 0
M  V30 12 C 5.2887 0.3312 0.0 0
M  V30 13 O 2.6857 -4.1765 0.0 0
M  V30 14 S 5.2768 1.8457 0.0 0
M  V30 15 C 6.5665 2.6029 0.0 0
M  V30 16 C 6.5546 4.1173 0.0 0
M  V30 17 N 7.8443 4.8746 0.0 0
M  V30 18 N 5.2413 4.8746 0.0 0
M  V30 19 C 7.8325 6.389 0.0 0
M  V30 20 C 5.2295 6.389 0.0 0
M  V30 21 N 6.5191 7.1581 0.0 0
M  V30 22 N 9.1221 7.1581 0.0 0
M  V30 23 N 3.9162 7.1581 0.0 0
M  V30 24 C 10.4117 6.4127 0.0 0
M  V30 25 C 10.3999 4.9219 0.0 0
M  V30 26 C 11.7014 7.1817 0.0 0
M  V30 27 C 11.6895 4.1883 0.0 0
M  V30 28 C 9.0866 4.1883 0.0 0
M  V30 29 C 12.991 6.4363 0.0 0
M  V30 30 C 12.9792 4.9455 0.0 0
M  V30 END ATOM
M  V30 BEGIN BOND
M  V30 1 1 1 2
M  V30 2 1 1 3
M  V30 3 1 2 4
M  V30 4 2 2 5
M  V30 5 2 3 6
M  V30 6 1 3 7
M  V30 7 2 4 8
M  V30 8 1 5 9
M  V30 9 1 6 10
M  V30 10 1 8 11
M  V30 11 1 8 12
M  V30 12 2 9 13
M  V30 13 1 12 14
M  V30 14 1 14 15
M  V30 15 1 15 16
M  V30 16 2 16 17
M  V30 17 1 16 18
M  V30 18 1 17 19
M  V30 19 2 18 20
M  V30 20 2 19 21
M  V30 21 1 19 22
M  V30 22 1 20 23
M  V30 23 1 22 24
M  V30 24 2 24 25
M  V30 25 1 24 26
M  V30 26 1 25 27
M  V30 27 1 25 28
M  V30 28 2 26 29
M  V30 29 2 27 30
M  V30 30 1 5 6
M  V30 31 1 9 11
M  V30 32 1 20 21
M  V30 33 1 29 30
M  V30 END BOND
M  V30 END CTAB
M  END
>  <Structure No>
713

>  <Catalog ID>
Z16858168

>  <MW (desalted)>
439.557

>  <ClogP>
3.697

>  <HBD>
3

>  <TPSA>
118.180

>  <RotBonds>
6

>  <Target>
parp15

>  <fromRegid>


>  <Similarity>


$$$$
Compound 714
Actelion Java MolfileCreator 2.0

  0  0  0  0  0  0              0 V3000
M  V30 BEGIN CTAB
M  V30 COUNTS 29 31 0 0 0
M  V30 BEGIN ATOM
M  V30 1 S 0.0 0.0 0.0 0
M  V30 2 C -1.4393 -0.4483 0.0 0
M  V30 3 C 0.873 -1.2034 0.0 0
M  V30 4 N -2.7489 0.3067 0.0 0
M  V30 5 C -1.4511 -1.9349 0.0 0
M  V30 6 C -0.0235 -2.4068 0.0 0
M  V30 7 C 2.3596 -1.1916 0.0 0
M  V30 8 C -4.0585 -0.4247 0.0 0
M  V30 9 C -2.7607 -2.6781 0.0 0
M  V30 10 C 0.4247 -3.8226 0.0 0
M  V30 11 N -4.0703 -1.9113 0.0 0
M  V30 12 C -5.3681 0.3303 0.0 0
M  V30 13 O -2.7725 -4.1647 0.0 0
M  V30 14 S -6.6777 -0.4011 0.0 0
M  V30 15 C -7.9873 0.3539 0.0 0 CFG=2
M  V30 16 C -9.2969 -0.3775 0.0 0
M  V30 17 C -7.9991 1.8641 0.0 0
M  V30 18 O -9.3087 -1.8641 0.0 0
M  V30 19 N -10.6065 0.3775 0.0 0
M  V30 20 C -11.9161 -0.3539 0.0 0
M  V30 21 C -13.2257 0.4011 0.0 0
M  V30 22 C -11.9279 -1.8405 0.0 0
M  V30 23 O -13.2375 1.9113 0.0 0
M  V30 24 C -14.5353 -0.3303 0.0 0
M  V30 25 C -13.2375 -2.5838 0.0 0
M  V30 26 C -11.9515 2.6781 0.0 0
M  V30 27 C -14.5471 -1.8169 0.0 0
M  V30 28 O -13.2493 -4.0703 0.0 0
M  V30 29 C -14.5589 -4.8018 0.0 0
M  V30 END ATOM
M  V30 BEGIN BOND
M  V30 1 1 1 2
M  V30 2 1 1 3
M  V30 3 1 2 4
M  V30 4 2 2 5
M  V30 5 2 3 6
M  V30 6 1 3 7
M  V30 7 2 4 8
M  V30 8 1 5 9
M  V30 9 1 6 10
M  V30 10 1 8 11
M  V30 11 1 8 12
M  V30 12 2 9 13
M  V30 13 1 12 14
M  V30 14 1 15 14 CFG=3
M  V30 15 1 15 16
M  V30 16 1 15 17
M  V30 17 2 16 18
M  V30 18 1 16 19
M  V30 19 1 19 20
M  V30 20 2 20 21
M  V30 21 1 20 22
M  V30 22 1 21 23
M  V30 23 1 21 24
M  V30 24 2 22 25
M  V30 25 1 23 26
M  V30 26 2 24 27
M  V30 27 1 25 28
M  V30 28 1 28 29
M  V30 29 1 5 6
M  V30 30 1 9 11
M  V30 31 1 25 27
M  V30 END BOND
M  V30 BEGIN COLLECTION
M  V30 MDLV30/STERAC1 ATOMS=(1 15)
M  V30 END COLLECTION
M  V30 END CTAB
M  END
>  <Structure No>
714

>  <Catalog ID>
Z16858199

>  <MW (desalted)>
433.544

>  <ClogP>
2.178

>  <HBD>
2

>  <TPSA>
89.020

>  <RotBonds>
7

>  <Target>
Tankyrase1

>  <fromRegid>


>  <Similarity>


$$$$
Compound 715
Actelion Java MolfileCreator 2.0

  0  0  0  0  0  0              0 V3000
M  V30 BEGIN CTAB
M  V30 COUNTS 29 31 0 0 0
M  V30 BEGIN ATOM
M  V30 1 Cl 0.0 0.0 0.0 0
M  V30 2 C -1.3166 -0.7473 0.0 0
M  V30 3 C -1.3285 -2.2419 0.0 0
M  V30 4 C -2.6333 0.0237 0.0 0
M  V30 5 C -2.6452 -2.9773 0.0 0
M  V30 6 C -0.0355 -2.9773 0.0 0
M  V30 7 C -3.95 -0.7235 0.0 0
M  V30 8 C -3.9618 -2.2181 0.0 0
M  V30 9 N 1.2573 -2.2181 0.0 0
M  V30 10 C -0.0474 -4.4719 0.0 0
M  V30 11 Cl -5.2667 0.0474 0.0 0
M  V30 12 C 2.5503 -2.9536 0.0 0
M  V30 13 O 2.5384 -4.4482 0.0 0
M  V30 14 C 3.8432 -2.1944 0.0 0
M  V30 15 S 5.1362 -2.9299 0.0 0
M  V30 16 C 3.8314 -0.6761 0.0 0
M  V30 17 C 6.4291 -2.1707 0.0 0
M  V30 18 C 7.7221 -2.9061 0.0 0
M  V30 19 N 9.015 -2.147 0.0 0
M  V30 20 N 7.7102 -4.4007 0.0 0
M  V30 21 C 10.308 -2.8824 0.0 0
M  V30 22 C 9.0032 -5.148 0.0 0
M  V30 23 S 11.7314 -2.4079 0.0 0
M  V30 24 C 10.2961 -4.377 0.0 0
M  V30 25 O 8.9913 -6.6426 0.0 0
M  V30 26 C 12.6092 -3.6178 0.0 0
M  V30 27 C 11.7196 -4.8278 0.0 0
M  V30 28 C 14.1038 -3.606 0.0 0
M  V30 29 C 12.1703 -6.2512 0.0 0
M  V30 END ATOM
M  V30 BEGIN BOND
M  V30 1 1 1 2
M  V30 2 2 2 3
M  V30 3 1 2 4
M  V30 4 1 3 5
M  V30 5 1 3 6
M  V30 6 2 4 7
M  V30 7 2 5 8
M  V30 8 1 6 9
M  V30 9 1 6 10
M  V30 10 1 7 11
M  V30 11 1 9 12
M  V30 12 2 12 13
M  V30 13 1 12 14
M  V30 14 1 14 15
M  V30 15 1 14 16
M  V30 16 1 15 17
M  V30 17 1 17 18
M  V30 18 2 18 19
M  V30 19 1 18 20
M  V30 20 1 19 21
M  V30 21 1 20 22
M  V30 22 1 21 23
M  V30 23 2 21 24
M  V30 24 2 22 25
M  V30 25 1 23 26
M  V30 26 1 24 27
M  V30 27 1 26 28
M  V30 28 1 27 29
M  V30 29 1 7 8
M  V30 30 1 22 24
M  V30 31 2 26 27
M  V30 END BOND
M  V30 END CTAB
M  END
>  <Structure No>
715

>  <Catalog ID>
Z16858636

>  <MW (desalted)>
470.436

>  <ClogP>
4.411

>  <HBD>
2

>  <TPSA>
70.560

>  <RotBonds>
6

>  <Target>
Tankyrase1

>  <fromRegid>


>  <Similarity>


$$$$
Compound 716
Actelion Java MolfileCreator 2.0

  0  0  0  0  0  0              0 V3000
M  V30 BEGIN CTAB
M  V30 COUNTS 22 24 0 0 0
M  V30 BEGIN ATOM
M  V30 1 S 0.0 0.0 0.0 0
M  V30 2 C 0.2955 1.4777 0.0 0
M  V30 3 C -1.5014 -0.1418 0.0 0
M  V30 4 N 1.5841 2.2344 0.0 0
M  V30 5 C -1.0167 2.2344 0.0 0
M  V30 6 C -2.128 1.2413 0.0 0
M  V30 7 C -2.258 -1.4304 0.0 0
M  V30 8 C 1.5723 3.7476 0.0 0
M  V30 9 C -1.0285 3.7476 0.0 0
M  V30 10 C -3.6057 1.5605 0.0 0
M  V30 11 N 0.26 4.5042 0.0 0
M  V30 12 C 2.8609 4.5042 0.0 0
M  V30 13 O -2.3408 4.5042 0.0 0
M  V30 14 S 4.1496 3.7713 0.0 0
M  V30 15 C 5.4382 4.5279 0.0 0 CFG=2
M  V30 16 C 6.7268 3.7949 0.0 0
M  V30 17 C 5.4264 6.0411 0.0 0
M  V30 18 O 6.715 2.3053 0.0 0
M  V30 19 N 8.0155 4.5515 0.0 0
M  V30 20 C 9.3041 3.8185 0.0 0
M  V30 21 C 10.7937 3.8304 0.0 0
M  V30 22 C 10.0371 2.5299 0.0 0
M  V30 END ATOM
M  V30 BEGIN BOND
M  V30 1 1 1 2
M  V30 2 1 1 3
M  V30 3 1 2 4
M  V30 4 2 2 5
M  V30 5 2 3 6
M  V30 6 1 3 7
M  V30 7 2 4 8
M  V30 8 1 5 9
M  V30 9 1 6 10
M  V30 10 1 8 11
M  V30 11 1 8 12
M  V30 12 2 9 13
M  V30 13 1 12 14
M  V30 14 1 15 14 CFG=1
M  V30 15 1 15 16
M  V30 16 1 15 17
M  V30 17 2 16 18
M  V30 18 1 16 19
M  V30 19 1 19 20
M  V30 20 1 20 21
M  V30 21 1 20 22
M  V30 22 1 5 6
M  V30 23 1 9 11
M  V30 24 1 21 22
M  V30 END BOND
M  V30 BEGIN COLLECTION
M  V30 MDLV30/STERAC1 ATOMS=(1 15)
M  V30 END COLLECTION
M  V30 END CTAB
M  END
>  <Structure No>
716

>  <Catalog ID>
Z16858219

>  <MW (desalted)>
337.460

>  <ClogP>
1.379

>  <HBD>
2

>  <TPSA>
70.560

>  <RotBonds>
5

>  <Target>
parp2

>  <fromRegid>


>  <Similarity>


$$$$
Compound 717
Actelion Java MolfileCreator 2.0

  0  0  0  0  0  0              0 V3000
M  V30 BEGIN CTAB
M  V30 COUNTS 28 30 0 0 0
M  V30 BEGIN ATOM
M  V30 1 S 0.0 0.0 0.0 0
M  V30 2 C 0.2956 1.4782 0.0 0
M  V30 3 C -1.5018 -0.1419 0.0 0
M  V30 4 N 1.5846 2.2468 0.0 0
M  V30 5 C -1.017 2.2468 0.0 0
M  V30 6 C -2.1286 1.2417 0.0 0
M  V30 7 C -2.2587 -1.4309 0.0 0
M  V30 8 C 1.5728 3.7605 0.0 0
M  V30 9 C -1.0288 3.7605 0.0 0
M  V30 10 C -3.6068 1.561 0.0 0
M  V30 11 N 0.2601 4.5174 0.0 0
M  V30 12 C 2.8618 4.5174 0.0 0
M  V30 13 O -2.3415 4.5174 0.0 0
M  V30 14 S 4.1508 3.7724 0.0 0
M  V30 15 C 5.4398 4.5292 0.0 0 CFG=2
M  V30 16 C 6.7288 3.7842 0.0 0
M  V30 17 C 5.428 6.0429 0.0 0
M  V30 18 O 6.717 2.2941 0.0 0
M  V30 19 N 8.0178 4.541 0.0 0
M  V30 20 C 9.3068 3.796 0.0 0
M  V30 21 C 9.295 2.306 0.0 0
M  V30 22 C 10.5958 4.5529 0.0 0
M  V30 23 F 7.9823 1.561 0.0 0
M  V30 24 C 10.584 1.561 0.0 0
M  V30 25 C 11.8848 3.8078 0.0 0
M  V30 26 F 10.5722 0.0709 0.0 0
M  V30 27 C 11.873 2.3296 0.0 0
M  V30 28 F 13.162 1.5846 0.0 0
M  V30 END ATOM
M  V30 BEGIN BOND
M  V30 1 1 1 2
M  V30 2 1 1 3
M  V30 3 1 2 4
M  V30 4 2 2 5
M  V30 5 2 3 6
M  V30 6 1 3 7
M  V30 7 2 4 8
M  V30 8 1 5 9
M  V30 9 1 6 10
M  V30 10 1 8 11
M  V30 11 1 8 12
M  V30 12 2 9 13
M  V30 13 1 12 14
M  V30 14 1 15 14 CFG=1
M  V30 15 1 15 16
M  V30 16 1 15 17
M  V30 17 2 16 18
M  V30 18 1 16 19
M  V30 19 1 19 20
M  V30 20 2 20 21
M  V30 21 1 20 22
M  V30 22 1 21 23
M  V30 23 1 21 24
M  V30 24 2 22 25
M  V30 25 1 24 26
M  V30 26 2 24 27
M  V30 27 1 27 28
M  V30 28 1 5 6
M  V30 29 1 9 11
M  V30 30 1 25 27
M  V30 END BOND
M  V30 BEGIN COLLECTION
M  V30 MDLV30/STERAC1 ATOMS=(1 15)
M  V30 END COLLECTION
M  V30 END CTAB
M  END
>  <Structure No>
717

>  <Catalog ID>
Z16858226

>  <MW (desalted)>
427.464

>  <ClogP>
2.736

>  <HBD>
2

>  <TPSA>
70.560

>  <RotBonds>
5

>  <Target>
Tankyrase1

>  <fromRegid>


>  <Similarity>


$$$$
Compound 718
Actelion Java MolfileCreator 2.0

  0  0  0  0  0  0              0 V3000
M  V30 BEGIN CTAB
M  V30 COUNTS 27 29 0 0 0
M  V30 BEGIN ATOM
M  V30 1 S 0.0 0.0 0.0 0
M  V30 2 C -1.4401 -0.4485 0.0 0
M  V30 3 C 0.8735 -1.204 0.0 0
M  V30 4 N -2.7503 0.3069 0.0 0
M  V30 5 C -1.4519 -1.9358 0.0 0
M  V30 6 C -0.0236 -2.408 0.0 0
M  V30 7 C 2.3608 -1.1922 0.0 0
M  V30 8 C -4.0606 -0.4249 0.0 0
M  V30 9 C -2.7621 -2.6795 0.0 0
M  V30 10 C 0.4249 -3.8245 0.0 0
M  V30 11 N -4.0724 -1.9122 0.0 0
M  V30 12 C -5.3709 0.3305 0.0 0
M  V30 13 O -2.7739 -4.1668 0.0 0
M  V30 14 S -6.6811 -0.4013 0.0 0
M  V30 15 C -7.9914 0.3541 0.0 0 CFG=2
M  V30 16 C -9.3017 -0.3777 0.0 0
M  V30 17 C -8.0032 1.865 0.0 0
M  V30 18 O -9.3135 -1.865 0.0 0
M  V30 19 N -10.6119 0.3777 0.0 0
M  V30 20 C -11.9222 -0.3541 0.0 0
M  V30 21 C -11.934 -1.8414 0.0 0
M  V30 22 C -13.2325 0.4013 0.0 0
M  V30 23 S -10.6474 -2.5851 0.0 0
M  V30 24 C -13.2443 -2.5851 0.0 0
M  V30 25 C -14.5427 -0.3305 0.0 0
M  V30 26 C -10.6592 -4.0724 0.0 0
M  V30 27 C -14.5546 -1.8178 0.0 0
M  V30 END ATOM
M  V30 BEGIN BOND
M  V30 1 1 1 2
M  V30 2 1 1 3
M  V30 3 1 2 4
M  V30 4 2 2 5
M  V30 5 2 3 6
M  V30 6 1 3 7
M  V30 7 2 4 8
M  V30 8 1 5 9
M  V30 9 1 6 10
M  V30 10 1 8 11
M  V30 11 1 8 12
M  V30 12 2 9 13
M  V30 13 1 12 14
M  V30 14 1 15 14 CFG=3
M  V30 15 1 15 16
M  V30 16 1 15 17
M  V30 17 2 16 18
M  V30 18 1 16 19
M  V30 19 1 19 20
M  V30 20 2 20 21
M  V30 21 1 20 22
M  V30 22 1 21 23
M  V30 23 1 21 24
M  V30 24 2 22 25
M  V30 25 1 23 26
M  V30 26 2 24 27
M  V30 27 1 5 6
M  V30 28 1 9 11
M  V30 29 1 25 27
M  V30 END BOND
M  V30 BEGIN COLLECTION
M  V30 MDLV30/STERAC1 ATOMS=(1 15)
M  V30 END COLLECTION
M  V30 END CTAB
M  END
>  <Structure No>
718

>  <Catalog ID>
Z16858237

>  <MW (desalted)>
419.584

>  <ClogP>
3.026

>  <HBD>
2

>  <TPSA>
70.560

>  <RotBonds>
6

>  <Target>
Tankyrase1

>  <fromRegid>


>  <Similarity>


$$$$
Compound 719
Actelion Java MolfileCreator 2.0

  0  0  0  0  0  0              0 V3000
M  V30 BEGIN CTAB
M  V30 COUNTS 27 30 0 0 0
M  V30 BEGIN ATOM
M  V30 1 O 0.0 0.0 0.0 0
M  V30 2 C -0.0118 -1.4971 0.0 0
M  V30 3 N -1.3307 -2.2338 0.0 0
M  V30 4 C 1.2832 -2.2338 0.0 0
M  V30 5 N -1.3426 -3.7309 0.0 0
M  V30 6 C 1.2713 -3.7309 0.0 0
M  V30 7 C 2.5784 -1.4733 0.0 0
M  V30 8 C -0.0475 -4.4795 0.0 0
M  V30 9 C 2.5665 -4.4795 0.0 0
M  V30 10 C 3.8735 -2.21 0.0 0
M  V30 11 C -0.0594 -5.9766 0.0 0
M  V30 12 C 3.8616 -3.719 0.0 0
M  V30 13 O -1.3783 -6.7252 0.0 0
M  V30 14 N 1.2357 -6.7252 0.0 0
M  V30 15 C 1.2238 -8.2224 0.0 0
M  V30 16 C 2.5308 -5.9529 0.0 0
M  V30 17 C 2.519 -8.9591 0.0 0
M  V30 18 C 3.826 -6.7015 0.0 0
M  V30 19 N 3.8141 -8.1986 0.0 0
M  V30 20 C 5.1093 -8.9353 0.0 0
M  V30 21 O 6.4044 -8.1748 0.0 0
M  V30 22 C 5.0974 -10.4324 0.0 0
M  V30 23 C 6.3925 -11.181 0.0 0
M  V30 24 C 3.7785 -11.181 0.0 0
M  V30 25 C 6.3806 -12.6781 0.0 0
M  V30 26 C 3.7666 -12.6781 0.0 0
M  V30 27 C 5.0617 -13.4148 0.0 0
M  V30 END ATOM
M  V30 BEGIN BOND
M  V30 1 2 1 2
M  V30 2 1 2 3
M  V30 3 1 2 4
M  V30 4 1 3 5
M  V30 5 2 4 6
M  V30 6 1 4 7
M  V30 7 2 5 8
M  V30 8 1 6 9
M  V30 9 2 7 10
M  V30 10 1 8 11
M  V30 11 2 9 12
M  V30 12 2 11 13
M  V30 13 1 11 14
M  V30 14 1 14 15
M  V30 15 1 14 16
M  V30 16 1 15 17
M  V30 17 1 16 18
M  V30 18 1 17 19
M  V30 19 1 19 20
M  V30 20 2 20 21
M  V30 21 1 20 22
M  V30 22 2 22 23
M  V30 23 1 22 24
M  V30 24 1 23 25
M  V30 25 2 24 26
M  V30 26 2 25 27
M  V30 27 1 6 8
M  V30 28 1 10 12
M  V30 29 1 18 19
M  V30 30 1 26 27
M  V30 END BOND
M  V30 END CTAB
M  END
>  <Structure No>
719

>  <Catalog ID>
Z26979657

>  <MW (desalted)>
362.382

>  <ClogP>
0.070

>  <HBD>
1

>  <TPSA>
82.080

>  <RotBonds>
2

>  <Target>
Poly [ADP-ribose] polymerase-1

>  <fromRegid>
CHEMBL3105422

>  <Similarity>
0.87

$$$$
Compound 720
Actelion Java MolfileCreator 2.0

  0  0  0  0  0  0              0 V3000
M  V30 BEGIN CTAB
M  V30 COUNTS 32 35 0 0 0
M  V30 BEGIN ATOM
M  V30 1 S 0.0 0.0 0.0 0
M  V30 2 C -1.3125 -0.7331 0.0 0
M  V30 3 C 1.2889 -0.7331 0.0 0
M  V30 4 N -1.4781 -2.2112 0.0 0
M  V30 5 N -2.696 -0.1064 0.0 0
M  V30 6 C 2.5778 0.0236 0.0 0
M  V30 7 N -2.9562 -2.5068 0.0 0
M  V30 8 C -3.169 1.3362 0.0 0
M  V30 9 C -3.713 -1.2061 0.0 0
M  V30 10 O 2.5659 1.5372 0.0 0
M  V30 11 N 3.8667 -0.7094 0.0 0
M  V30 12 C -4.6471 1.6554 0.0 0
M  V30 13 C -2.1757 2.4595 0.0 0
M  V30 14 N -5.1911 -0.8868 0.0 0
M  V30 15 C 5.1556 0.0472 0.0 0
M  V30 16 C -5.6641 0.5557 0.0 0
M  V30 17 C -5.1201 3.0981 0.0 0
M  V30 18 C -2.6487 3.9022 0.0 0
M  V30 19 C -6.208 -1.9865 0.0 0
M  V30 20 C 6.4445 -0.6858 0.0 0
M  V30 21 O -7.1422 0.875 0.0 0
M  V30 22 C -4.1268 4.2214 0.0 0
M  V30 23 C -7.6861 -1.6673 0.0 0
M  V30 24 C 7.7334 0.0709 0.0 0
M  V30 25 C 6.4327 -2.1757 0.0 0
M  V30 26 C -8.7031 -2.767 0.0 0
M  V30 27 C 9.0223 -0.6621 0.0 0
M  V30 28 C 7.7216 -2.9089 0.0 0
M  V30 29 C 9.0105 -2.1521 0.0 0
M  V30 30 C 10.2994 -2.8852 0.0 0
M  V30 31 O 11.5883 -2.1284 0.0 0
M  V30 32 O 10.2876 -4.3752 0.0 0
M  V30 END ATOM
M  V30 BEGIN BOND
M  V30 1 1 1 2
M  V30 2 1 1 3
M  V30 3 2 2 4
M  V30 4 1 2 5
M  V30 5 1 3 6
M  V30 6 1 4 7
M  V30 7 1 5 8
M  V30 8 1 5 9
M  V30 9 2 6 10
M  V30 10 1 6 11
M  V30 11 2 8 12
M  V30 12 1 8 13
M  V30 13 1 9 14
M  V30 14 1 11 15
M  V30 15 1 12 16
M  V30 16 1 12 17
M  V30 17 2 13 18
M  V30 18 1 14 19
M  V30 19 1 15 20
M  V30 20 2 16 21
M  V30 21 2 17 22
M  V30 22 1 19 23
M  V30 23 2 20 24
M  V30 24 1 20 25
M  V30 25 1 23 26
M  V30 26 1 24 27
M  V30 27 2 25 28
M  V30 28 2 27 29
M  V30 29 1 29 30
M  V30 30 2 30 31
M  V30 31 1 30 32
M  V30 32 2 7 9
M  V30 33 1 14 16
M  V30 34 1 18 22
M  V30 35 1 28 29
M  V30 END BOND
M  V30 END CTAB
M  END
>  <Structure No>
720

>  <Catalog ID>
Z16873486

>  <MW (desalted)>
451.498

>  <ClogP>
2.257

>  <HBD>
2

>  <TPSA>
117.420

>  <RotBonds>
8

>  <Target>
CHK2

>  <fromRegid>


>  <Similarity>


$$$$
Compound 721
Actelion Java MolfileCreator 2.0

  0  0  0  0  0  0              0 V3000
M  V30 BEGIN CTAB
M  V30 COUNTS 29 32 0 0 0
M  V30 BEGIN ATOM
M  V30 1 S 0.0 0.0 0.0 0
M  V30 2 C 1.4226 -0.4505 0.0 0
M  V30 3 C -0.901 -1.2092 0.0 0
M  V30 4 C 2.7149 0.3082 0.0 0
M  V30 5 C 1.4108 -1.9443 0.0 0
M  V30 6 C -0.0237 -2.4185 0.0 0
M  V30 7 O 2.7031 1.8257 0.0 0
M  V30 8 N 4.0072 -0.4268 0.0 0
M  V30 9 N 2.7031 -2.6794 0.0 0
M  V30 10 C 3.9954 -1.9206 0.0 0
M  V30 11 C 5.2876 -2.6557 0.0 0
M  V30 12 S 6.5799 -1.8969 0.0 0
M  V30 13 C 7.8722 -2.6319 0.0 0
M  V30 14 N 8.0145 -4.1139 0.0 0
M  V30 15 N 9.2356 -2.0036 0.0 0
M  V30 16 N 9.4727 -4.4103 0.0 0
M  V30 17 C 9.532 -0.5216 0.0 0
M  V30 18 C 10.2315 -3.1062 0.0 0
M  V30 19 C 8.4057 0.4979 0.0 0
M  V30 20 C 10.9547 -0.0474 0.0 0
M  V30 21 C 11.7135 -2.9402 0.0 0 CFG=1
M  V30 22 C 8.7021 1.9799 0.0 0
M  V30 23 C 11.2511 1.4345 0.0 0
M  V30 24 N 12.5908 -4.1495 0.0 0
M  V30 25 C 12.3181 -1.5531 0.0 0
M  V30 26 C 10.1248 2.4541 0.0 0
M  V30 27 C 14.0728 -3.9835 0.0 0
M  V30 28 C 11.9625 -5.5129 0.0 0
M  V30 29 F 10.4212 3.9361 0.0 0
M  V30 END ATOM
M  V30 BEGIN BOND
M  V30 1 1 1 2
M  V30 2 1 1 3
M  V30 3 1 2 4
M  V30 4 2 2 5
M  V30 5 2 3 6
M  V30 6 2 4 7
M  V30 7 1 4 8
M  V30 8 1 5 9
M  V30 9 1 8 10
M  V30 10 1 10 11
M  V30 11 1 11 12
M  V30 12 1 12 13
M  V30 13 2 13 14
M  V30 14 1 13 15
M  V30 15 1 14 16
M  V30 16 1 15 17
M  V30 17 1 15 18
M  V30 18 2 17 19
M  V30 19 1 17 20
M  V30 20 1 18 21
M  V30 21 1 19 22
M  V30 22 2 20 23
M  V30 23 1 21 24 CFG=3
M  V30 24 1 21 25
M  V30 25 2 22 26
M  V30 26 1 24 27
M  V30 27 1 24 28
M  V30 28 1 26 29
M  V30 29 1 5 6
M  V30 30 2 9 10
M  V30 31 2 16 18
M  V30 32 1 23 26
M  V30 END BOND
M  V30 BEGIN COLLECTION
M  V30 MDLV30/STERAC1 ATOMS=(1 21)
M  V30 END COLLECTION
M  V30 END CTAB
M  END
>  <Structure No>
721

>  <Catalog ID>
Z16890277

>  <MW (desalted)>
430.522

>  <ClogP>
1.674

>  <HBD>
1

>  <TPSA>
75.410

>  <RotBonds>
6

>  <Target>
parp2, parp1, parp10

>  <fromRegid>


>  <Similarity>


$$$$
Compound 722
Actelion Java MolfileCreator 2.0

  0  0  0  0  0  0              0 V3000
M  V30 BEGIN CTAB
M  V30 COUNTS 20 21 0 0 0
M  V30 BEGIN ATOM
M  V30 1 O 0.0 0.0 0.0 0
M  V30 2 C 0.9895 1.1191 0.0 0
M  V30 3 N 2.4621 0.9778 0.0 0
M  V30 4 C 0.6715 2.5917 0.0 0
M  V30 5 C 3.0629 2.3561 0.0 0
M  V30 6 C 3.1925 -0.3062 0.0 0
M  V30 7 C 1.9556 3.3575 0.0 0
M  V30 8 C -0.6361 3.3575 0.0 0
M  V30 9 O 4.512 2.6742 0.0 0
M  V30 10 C 1.9438 4.8654 0.0 0
M  V30 11 C -0.6479 4.8654 0.0 0
M  V30 12 C 0.6361 5.6194 0.0 0
M  V30 13 C -1.9556 5.6194 0.0 0
M  V30 14 O -1.9673 7.1273 0.0 0
M  V30 15 N -3.2632 4.889 0.0 0
M  V30 16 C -4.5709 5.6429 0.0 0 CFG=2
M  V30 17 C -5.8785 4.9125 0.0 0
M  V30 18 C -4.5827 7.1509 0.0 0
M  V30 19 C -7.1862 5.6665 0.0 0
M  V30 20 C -8.4939 4.9361 0.0 0
M  V30 END ATOM
M  V30 BEGIN BOND
M  V30 1 2 1 2
M  V30 2 1 2 3
M  V30 3 1 2 4
M  V30 4 1 3 5
M  V30 5 1 3 6
M  V30 6 2 4 7
M  V30 7 1 4 8
M  V30 8 2 5 9
M  V30 9 1 7 10
M  V30 10 2 8 11
M  V30 11 2 10 12
M  V30 12 1 11 13
M  V30 13 2 13 14
M  V30 14 1 13 15
M  V30 15 1 16 15 CFG=3
M  V30 16 1 16 17
M  V30 17 1 16 18
M  V30 18 1 17 19
M  V30 19 1 19 20
M  V30 20 1 5 7
M  V30 21 1 11 12
M  V30 END BOND
M  V30 BEGIN COLLECTION
M  V30 MDLV30/STERAC1 ATOMS=(1 16)
M  V30 END COLLECTION
M  V30 END CTAB
M  END
>  <Structure No>
722

>  <Catalog ID>
Z26707888

>  <MW (desalted)>
274.315

>  <ClogP>
2.583

>  <HBD>
1

>  <TPSA>
66.480

>  <RotBonds>
4

>  <Target>
Poly [ADP-ribose] polymerase-1

>  <fromRegid>
CHEMBL597890

>  <Similarity>
0.86

$$$$
Compound 723
Actelion Java MolfileCreator 2.0

  0  0  0  0  0  0              0 V3000
M  V30 BEGIN CTAB
M  V30 COUNTS 28 30 0 0 0
M  V30 BEGIN ATOM
M  V30 1 O 0.0 0.0 0.0 0
M  V30 2 C 1.0945 1.0122 0.0 0
M  V30 3 N 0.9298 2.5069 0.0 0
M  V30 4 N 2.5422 0.7179 0.0 0
M  V30 5 C -0.3766 3.2602 0.0 0
M  V30 6 C 2.2833 3.1307 0.0 0
M  V30 7 C 3.2837 2.0244 0.0 0
M  V30 8 C -1.683 2.5187 0.0 0
M  V30 9 C -0.3884 4.7667 0.0 0
M  V30 10 C -2.9895 3.272 0.0 0
M  V30 11 C -1.6948 5.52 0.0 0
M  V30 12 N -4.2959 2.5305 0.0 0
M  V30 13 C -3.0013 4.7785 0.0 0
M  V30 14 C -5.6024 3.2837 0.0 0
M  V30 15 O -5.6142 4.7903 0.0 0
M  V30 16 N -6.9088 2.5422 0.0 0
M  V30 17 C -8.2153 3.2955 0.0 0
M  V30 18 C -9.5217 2.554 0.0 0
M  V30 19 C -10.8282 3.3073 0.0 0
M  V30 20 N -12.1346 2.5658 0.0 0
M  V30 21 C -13.4411 3.319 0.0 0
M  V30 22 C -12.1464 1.0828 0.0 0
M  V30 23 C -14.7475 2.5775 0.0 0
M  V30 24 C -13.4529 0.353 0.0 0
M  V30 25 C -14.7593 1.0945 0.0 0
M  V30 26 C -16.0658 0.3648 0.0 0
M  V30 27 O -17.3722 1.1181 0.0 0
M  V30 28 N -16.0775 -1.1181 0.0 0
M  V30 END ATOM
M  V30 BEGIN BOND
M  V30 1 2 1 2
M  V30 2 1 2 3
M  V30 3 1 2 4
M  V30 4 1 3 5
M  V30 5 1 3 6
M  V30 6 1 4 7
M  V30 7 2 5 8
M  V30 8 1 5 9
M  V30 9 1 8 10
M  V30 10 2 9 11
M  V30 11 1 10 12
M  V30 12 2 10 13
M  V30 13 1 12 14
M  V30 14 2 14 15
M  V30 15 1 14 16
M  V30 16 1 16 17
M  V30 17 1 17 18
M  V30 18 1 18 19
M  V30 19 1 19 20
M  V30 20 1 20 21
M  V30 21 1 20 22
M  V30 22 1 21 23
M  V30 23 1 22 24
M  V30 24 1 23 25
M  V30 25 1 25 26
M  V30 26 2 26 27
M  V30 27 1 26 28
M  V30 28 1 6 7
M  V30 29 1 11 13
M  V30 30 1 24 25
M  V30 END BOND
M  V30 END CTAB
M  END
>  <Structure No>
723

>  <Catalog ID>
Z433453616

>  <MW (desalted)>
388.464

>  <ClogP>
-1.158

>  <HBD>
4

>  <TPSA>
119.800

>  <RotBonds>
7

>  <Target>
CHK1

>  <fromRegid>


>  <Similarity>


$$$$
Compound 724
Actelion Java MolfileCreator 2.0

  0  0  0  0  0  0              0 V3000
M  V30 BEGIN CTAB
M  V30 COUNTS 23 24 0 0 0
M  V30 BEGIN ATOM
M  V30 1 O 0.0 0.0 0.0 0
M  V30 2 C 0.4489 1.4412 0.0 0
M  V30 3 N -0.4489 2.6698 0.0 0
M  V30 4 C 1.8665 1.9137 0.0 0
M  V30 5 C 0.4252 3.8984 0.0 0
M  V30 6 C -1.961 2.6816 0.0 0
M  V30 7 C 1.8547 3.4259 0.0 0
M  V30 8 C 3.1542 1.1813 0.0 0
M  V30 9 O -0.0472 5.3397 0.0 0
M  V30 10 C -2.7289 3.9929 0.0 0
M  V30 11 C 3.1424 4.1938 0.0 0
M  V30 12 C 4.4419 1.9374 0.0 0
M  V30 13 C -4.241 4.0048 0.0 0
M  V30 14 C 4.43 3.4495 0.0 0
M  V30 15 C 5.7295 1.2049 0.0 0
M  V30 16 C -4.9971 5.3161 0.0 0
M  V30 17 O 5.7177 -0.2835 0.0 0
M  V30 18 N 7.0172 1.961 0.0 0
M  V30 19 C 8.3049 1.2286 0.0 0 CFG=2
M  V30 20 C 9.5926 1.9846 0.0 0
M  V30 21 C 8.2931 -0.2598 0.0 0
M  V30 22 C 10.8803 1.2522 0.0 0
M  V30 23 C 12.1679 2.0083 0.0 0
M  V30 END ATOM
M  V30 BEGIN BOND
M  V30 1 2 1 2
M  V30 2 1 2 3
M  V30 3 1 2 4
M  V30 4 1 3 5
M  V30 5 1 3 6
M  V30 6 2 4 7
M  V30 7 1 4 8
M  V30 8 2 5 9
M  V30 9 1 6 10
M  V30 10 1 7 11
M  V30 11 2 8 12
M  V30 12 1 10 13
M  V30 13 2 11 14
M  V30 14 1 12 15
M  V30 15 1 13 16
M  V30 16 2 15 17
M  V30 17 1 15 18
M  V30 18 1 19 18 CFG=3
M  V30 19 1 19 20
M  V30 20 1 19 21
M  V30 21 1 20 22
M  V30 22 1 22 23
M  V30 23 1 5 7
M  V30 24 1 12 14
M  V30 END BOND
M  V30 BEGIN COLLECTION
M  V30 MDLV30/STERAC1 ATOMS=(1 19)
M  V30 END COLLECTION
M  V30 END CTAB
M  END
>  <Structure No>
724

>  <Catalog ID>
Z26706985

>  <MW (desalted)>
316.395

>  <ClogP>
4.170

>  <HBD>
1

>  <TPSA>
66.480

>  <RotBonds>
7

>  <Target>
Poly [ADP-ribose] polymerase-1

>  <fromRegid>
CHEMBL597888

>  <Similarity>
0.89

$$$$
Compound 725
Actelion Java MolfileCreator 2.0

  0  0  0  0  0  0              0 V3000
M  V30 BEGIN CTAB
M  V30 COUNTS 25 27 0 0 0
M  V30 BEGIN ATOM
M  V30 1 O 0.0 0.0 0.0 0
M  V30 2 C 1.0926 1.0103 0.0 0
M  V30 3 N 0.9281 2.5024 0.0 0
M  V30 4 N 2.5376 0.7166 0.0 0
M  V30 5 C -0.3759 3.266 0.0 0
M  V30 6 C 2.2791 3.125 0.0 0
M  V30 7 C 3.2778 2.0207 0.0 0
M  V30 8 C -1.68 2.5259 0.0 0
M  V30 9 C -0.3876 4.7698 0.0 0
M  V30 10 C -2.984 3.2895 0.0 0
M  V30 11 C -1.6917 5.5217 0.0 0
M  V30 12 N -4.2881 2.5494 0.0 0
M  V30 13 C -2.9958 4.7933 0.0 0
M  V30 14 C -5.5922 3.313 0.0 0
M  V30 15 O -5.6039 4.8168 0.0 0
M  V30 16 N -6.8963 2.5729 0.0 0
M  V30 17 C -8.2003 3.3365 0.0 0 CFG=2
M  V30 18 C -9.5044 2.5963 0.0 0
M  V30 19 C -8.2121 4.8403 0.0 0
M  V30 20 N -10.8085 3.36 0.0 0
M  V30 21 C -10.973 4.852 0.0 0
M  V30 22 C -12.183 2.7608 0.0 0
M  V30 23 O -9.8804 5.8624 0.0 0
M  V30 24 C -12.4415 5.1692 0.0 0
M  V30 25 C -13.1934 3.8769 0.0 0
M  V30 END ATOM
M  V30 BEGIN BOND
M  V30 1 2 1 2
M  V30 2 1 2 3
M  V30 3 1 2 4
M  V30 4 1 3 5
M  V30 5 1 3 6
M  V30 6 1 4 7
M  V30 7 2 5 8
M  V30 8 1 5 9
M  V30 9 1 8 10
M  V30 10 2 9 11
M  V30 11 1 10 12
M  V30 12 2 10 13
M  V30 13 1 12 14
M  V30 14 2 14 15
M  V30 15 1 14 16
M  V30 16 1 17 16 CFG=3
M  V30 17 1 17 18
M  V30 18 1 17 19
M  V30 19 1 18 20
M  V30 20 1 20 21
M  V30 21 1 20 22
M  V30 22 2 21 23
M  V30 23 1 21 24
M  V30 24 1 22 25
M  V30 25 1 6 7
M  V30 26 1 11 13
M  V30 27 1 24 25
M  V30 END BOND
M  V30 BEGIN COLLECTION
M  V30 MDLV30/STERAC1 ATOMS=(1 17)
M  V30 END COLLECTION
M  V30 END CTAB
M  END
>  <Structure No>
725

>  <Catalog ID>
Z603495396

>  <MW (desalted)>
345.396

>  <ClogP>
-0.121

>  <HBD>
3

>  <TPSA>
93.780

>  <RotBonds>
5

>  <Target>
CHK1

>  <fromRegid>


>  <Similarity>


$$$$
Compound 726
Actelion Java MolfileCreator 2.0

  0  0  0  0  0  0              0 V3000
M  V30 BEGIN CTAB
M  V30 COUNTS 23 25 0 0 0
M  V30 BEGIN ATOM
M  V30 1 S 0.0 0.0 0.0 0
M  V30 2 C -1.0132 1.1192 0.0 0
M  V30 3 C 1.3549 0.6244 0.0 0
M  V30 4 C -2.5095 0.9779 0.0 0
M  V30 5 C -0.2827 2.4271 0.0 0
M  V30 6 C 1.1899 2.1207 0.0 0
M  V30 7 N -3.5228 2.0972 0.0 0
M  V30 8 C -3.2636 -0.3063 0.0 0
M  V30 9 C -4.9013 1.4963 0.0 0
M  V30 10 N -4.7363 0.0117 0.0 0
M  V30 11 C -2.6627 -1.6612 0.0 0
M  V30 12 S -6.2091 2.2621 0.0 0
M  V30 13 S -3.4285 -2.9455 0.0 0
M  V30 14 C -1.2135 -1.9558 0.0 0
M  V30 15 C -7.5169 1.5198 0.0 0
M  V30 16 C -2.4388 -4.0412 0.0 0
M  V30 17 C -1.0721 -3.4285 0.0 0
M  V30 18 C -8.8247 2.2857 0.0 0
M  V30 19 O -8.8365 3.7938 0.0 0
M  V30 20 N -10.1325 1.5434 0.0 0
M  V30 21 C -11.4404 2.3092 0.0 0
M  V30 22 O -11.4521 3.8173 0.0 0
M  V30 23 N -12.7482 1.567 0.0 0
M  V30 END ATOM
M  V30 BEGIN BOND
M  V30 1 1 1 2
M  V30 2 1 1 3
M  V30 3 1 2 4
M  V30 4 2 2 5
M  V30 5 2 3 6
M  V30 6 1 4 7
M  V30 7 2 4 8
M  V30 8 2 7 9
M  V30 9 1 8 10
M  V30 10 1 8 11
M  V30 11 1 9 12
M  V30 12 1 11 13
M  V30 13 2 11 14
M  V30 14 1 12 15
M  V30 15 1 13 16
M  V30 16 1 14 17
M  V30 17 1 15 18
M  V30 18 2 18 19
M  V30 19 1 18 20
M  V30 20 1 20 21
M  V30 21 2 21 22
M  V30 22 1 21 23
M  V30 23 1 5 6
M  V30 24 1 9 10
M  V30 25 2 16 17
M  V30 END BOND
M  V30 END CTAB
M  END
>  <Structure No>
726

>  <Catalog ID>
Z16940924

>  <MW (desalted)>
364.466

>  <ClogP>
2.852

>  <HBD>
3

>  <TPSA>
100.870

>  <RotBonds>
5

>  <Target>
DNA_pk

>  <fromRegid>


>  <Similarity>


$$$$
Compound 727
Actelion Java MolfileCreator 2.0

  0  0  0  0  0  0              0 V3000
M  V30 BEGIN CTAB
M  V30 COUNTS 19 20 0 0 0
M  V30 BEGIN ATOM
M  V30 1 O 0.0 0.0 0.0 0
M  V30 2 C -1.3076 0.7657 0.0 0
M  V30 3 N -2.6152 0.0235 0.0 0
M  V30 4 C -1.3194 2.2736 0.0 0
M  V30 5 C -2.627 -1.4607 0.0 0 CFG=2
M  V30 6 C -0.0353 3.0276 0.0 0
M  V30 7 C -2.627 3.0276 0.0 0
M  V30 8 C -3.9347 -2.1911 0.0 0
M  V30 9 C -1.3429 -2.1911 0.0 0
M  V30 10 C -0.0471 4.5355 0.0 0
M  V30 11 C -2.6388 4.5355 0.0 0
M  V30 12 C -3.9465 -3.6755 0.0 0
M  V30 13 C -5.2423 -1.4372 0.0 0
M  V30 14 C -1.3547 5.2894 0.0 0
M  V30 15 C -5.2541 -4.4059 0.0 0
M  V30 16 C -6.55 -2.1676 0.0 0
M  V30 17 O -1.3665 6.7974 0.0 0
M  V30 18 N -6.5617 -3.6519 0.0 0
M  V30 19 C -2.6741 7.5513 0.0 0
M  V30 END ATOM
M  V30 BEGIN BOND
M  V30 1 2 1 2
M  V30 2 1 2 3
M  V30 3 1 2 4
M  V30 4 1 5 3 CFG=1
M  V30 5 2 4 6
M  V30 6 1 4 7
M  V30 7 1 5 8
M  V30 8 1 5 9
M  V30 9 1 6 10
M  V30 10 2 7 11
M  V30 11 2 8 12
M  V30 12 1 8 13
M  V30 13 2 10 14
M  V30 14 1 12 15
M  V30 15 2 13 16
M  V30 16 1 14 17
M  V30 17 2 15 18
M  V30 18 1 17 19
M  V30 19 1 11 14
M  V30 20 1 16 18
M  V30 END BOND
M  V30 BEGIN COLLECTION
M  V30 MDLV30/STERAC1 ATOMS=(1 5)
M  V30 END COLLECTION
M  V30 END CTAB
M  END
>  <Structure No>
727

>  <Catalog ID>
Z27995192

>  <MW (desalted)>
256.300

>  <ClogP>
1.842

>  <HBD>
1

>  <TPSA>
51.220

>  <RotBonds>
4

>  <Target>
Serine/threonine-protein kinase Chk2

>  <fromRegid>
CHEMBL1975121

>  <Similarity>
0.86

$$$$
Compound 728
Actelion Java MolfileCreator 2.0

  0  0  0  0  0  0              0 V3000
M  V30 BEGIN CTAB
M  V30 COUNTS 27 29 0 0 0
M  V30 BEGIN ATOM
M  V30 1 S 0.0 0.0 0.0 0
M  V30 2 C 0.8733 1.2274 0.0 0
M  V30 3 C 0.6019 -1.3572 0.0 0
M  V30 4 N 2.3604 1.2392 0.0 0
M  V30 5 N 0.4012 2.6673 0.0 0
M  V30 6 C -0.295 -2.5611 0.0 0
M  V30 7 N 2.8089 2.6791 0.0 0
M  V30 8 C 1.6051 3.5643 0.0 0
M  V30 9 C -1.0386 3.1394 0.0 0
M  V30 10 O -1.7939 -2.3958 0.0 0
M  V30 11 N 0.3068 -3.9183 0.0 0
M  V30 12 C 1.5933 5.075 0.0 0
M  V30 13 C -0.5901 -5.1222 0.0 0
M  V30 14 C 1.7821 -4.06 0.0 0
M  V30 15 C 0.2832 5.8303 0.0 0
M  V30 16 C 2.8797 5.8303 0.0 0
M  V30 17 C 0.0118 -6.4794 0.0 0 CFG=1
M  V30 18 C 2.384 -5.4172 0.0 0
M  V30 19 C 0.2714 7.341 0.0 0
M  V30 20 C 2.8679 7.341 0.0 0
M  V30 21 C -0.8851 -7.6833 0.0 0
M  V30 22 C 1.487 -6.6211 0.0 0
M  V30 23 O -1.0386 8.0964 0.0 0
M  V30 24 C 1.5579 8.0964 0.0 0
M  V30 25 O -0.2832 -9.0405 0.0 0
M  V30 26 N -2.384 -7.518 0.0 0
M  V30 27 C -1.0504 9.607 0.0 0
M  V30 END ATOM
M  V30 BEGIN BOND
M  V30 1 1 1 2
M  V30 2 1 1 3
M  V30 3 2 2 4
M  V30 4 1 2 5
M  V30 5 1 3 6
M  V30 6 1 4 7
M  V30 7 1 5 8
M  V30 8 1 5 9
M  V30 9 2 6 10
M  V30 10 1 6 11
M  V30 11 1 8 12
M  V30 12 1 11 13
M  V30 13 1 11 14
M  V30 14 2 12 15
M  V30 15 1 12 16
M  V30 16 1 13 17
M  V30 17 1 14 18
M  V30 18 1 15 19
M  V30 19 2 16 20
M  V30 20 1 17 21 CFG=3
M  V30 21 1 17 22
M  V30 22 1 19 23
M  V30 23 2 19 24
M  V30 24 2 21 25
M  V30 25 1 21 26
M  V30 26 1 23 27
M  V30 27 2 7 8
M  V30 28 1 18 22
M  V30 29 1 20 24
M  V30 END BOND
M  V30 BEGIN COLLECTION
M  V30 MDLV30/STERAC1 ATOMS=(1 17)
M  V30 END COLLECTION
M  V30 END CTAB
M  END
>  <Structure No>
728

>  <Catalog ID>
Z97462498

>  <MW (desalted)>
389.472

>  <ClogP>
0.652

>  <HBD>
1

>  <TPSA>
103.340

>  <RotBonds>
6

>  <Target>
parp15

>  <fromRegid>


>  <Similarity>


$$$$
Compound 729
Actelion Java MolfileCreator 2.0

  0  0  0  0  0  0              0 V3000
M  V30 BEGIN CTAB
M  V30 COUNTS 23 26 0 0 0
M  V30 BEGIN ATOM
M  V30 1 O 0.0 0.0 0.0 0
M  V30 2 C -1.3112 -0.7324 0.0 0
M  V30 3 N -2.6225 0.0236 0.0 0
M  V30 4 C -1.323 -2.2208 0.0 0
M  V30 5 C -2.6343 1.5357 0.0 0 CFG=2
M  V30 6 C -0.0354 -2.9532 0.0 0
M  V30 7 C -2.6343 -2.9532 0.0 0
M  V30 8 C -1.3466 2.2917 0.0 0
M  V30 9 C -3.9455 2.2917 0.0 0
M  V30 10 C -0.0472 -4.4417 0.0 0
M  V30 11 C 1.2521 -2.1972 0.0 0
M  V30 12 C -2.6461 -4.4417 0.0 0
M  V30 13 N -1.3585 3.8038 0.0 0
M  V30 14 C -3.9573 3.8038 0.0 0
M  V30 15 N -1.3585 -5.1859 0.0 0
M  V30 16 C 1.2403 -5.1859 0.0 0
M  V30 17 C 2.5398 -2.9296 0.0 0
M  V30 18 O -3.9573 -5.1859 0.0 0
M  V30 19 C -2.6697 4.5716 0.0 0
M  V30 20 C -0.2598 4.8197 0.0 0
M  V30 21 C 2.5279 -4.4299 0.0 0
M  V30 22 N -2.3744 6.0482 0.0 0
M  V30 23 C -0.8859 6.2018 0.0 0
M  V30 END ATOM
M  V30 BEGIN BOND
M  V30 1 2 1 2
M  V30 2 1 2 3
M  V30 3 1 2 4
M  V30 4 1 5 3 CFG=1
M  V30 5 1 4 6
M  V30 6 2 4 7
M  V30 7 1 5 8
M  V30 8 1 5 9
M  V30 9 1 6 10
M  V30 10 2 6 11
M  V30 11 1 7 12
M  V30 12 1 8 13
M  V30 13 1 9 14
M  V30 14 1 10 15
M  V30 15 2 10 16
M  V30 16 1 11 17
M  V30 17 1 12 18
M  V30 18 1 13 19
M  V30 19 1 13 20
M  V30 20 1 16 21
M  V30 21 2 19 22
M  V30 22 2 20 23
M  V30 23 2 12 15
M  V30 24 1 14 19
M  V30 25 2 17 21
M  V30 26 1 22 23
M  V30 END BOND
M  V30 BEGIN COLLECTION
M  V30 MDLV30/STERAC1 ATOMS=(1 5)
M  V30 END COLLECTION
M  V30 END CTAB
M  END
>  <Structure No>
729

>  <Catalog ID>
Z978951726

>  <MW (desalted)>
308.335

>  <ClogP>
2.005

>  <HBD>
2

>  <TPSA>
80.040

>  <RotBonds>
2

>  <Target>
CHK1

>  <fromRegid>


>  <Similarity>


$$$$
Compound 730
Actelion Java MolfileCreator 2.0

  0  0  0  0  0  0              0 V3000
M  V30 BEGIN CTAB
M  V30 COUNTS 29 31 0 0 0
M  V30 BEGIN ATOM
M  V30 1 O 0.0 0.0 0.0 0
M  V30 2 C 1.289 0.7568 0.0 0
M  V30 3 N 2.578 0.0236 0.0 0
M  V30 4 C 1.2772 2.2705 0.0 0 CFG=1
M  V30 5 C 3.8671 0.7805 0.0 0
M  V30 6 C 2.5662 -1.4664 0.0 0
M  V30 7 O 2.5662 3.0274 0.0 0
M  V30 8 C -0.0354 3.0274 0.0 0
M  V30 9 C 3.8552 2.2942 0.0 0
M  V30 10 C 5.1561 0.0473 0.0 0
M  V30 11 C 1.2535 -2.2114 0.0 0
M  V30 12 C 5.1443 3.0511 0.0 0
M  V30 13 C 6.4451 0.8041 0.0 0
M  V30 14 O -0.0591 -1.4545 0.0 0
M  V30 15 N 1.2417 -3.7015 0.0 0
M  V30 16 C 6.4333 2.3178 0.0 0
M  V30 17 C -0.0709 -4.4347 0.0 0
M  V30 18 C -0.0827 -5.9248 0.0 0
M  V30 19 C -1.3836 -3.6778 0.0 0
M  V30 20 C -1.3954 -6.6698 0.0 0
M  V30 21 C -2.6963 -4.411 0.0 0
M  V30 22 C -1.4072 -8.1599 0.0 0
M  V30 23 C -2.7081 -5.9011 0.0 0
M  V30 24 O -0.1182 -8.8931 0.0 0
M  V30 25 N -2.7199 -8.8931 0.0 0
M  V30 26 C -2.7318 -10.3832 0.0 0
M  V30 27 C -4.0326 -8.1362 0.0 0
M  V30 28 C -4.0444 -11.1164 0.0 0
M  V30 29 C -4.0444 -6.6225 0.0 0
M  V30 END ATOM
M  V30 BEGIN BOND
M  V30 1 2 1 2
M  V30 2 1 2 3
M  V30 3 1 2 4
M  V30 4 1 3 5
M  V30 5 1 3 6
M  V30 6 1 4 7
M  V30 7 1 4 8 CFG=3
M  V30 8 2 5 9
M  V30 9 1 5 10
M  V30 10 1 6 11
M  V30 11 1 9 12
M  V30 12 2 10 13
M  V30 13 2 11 14
M  V30 14 1 11 15
M  V30 15 2 12 16
M  V30 16 1 15 17
M  V30 17 2 17 18
M  V30 18 1 17 19
M  V30 19 1 18 20
M  V30 20 2 19 21
M  V30 21 1 20 22
M  V30 22 2 20 23
M  V30 23 2 22 24
M  V30 24 1 22 25
M  V30 25 1 25 26
M  V30 26 1 25 27
M  V30 27 1 26 28
M  V30 28 1 27 29
M  V30 29 1 7 9
M  V30 30 1 13 16
M  V30 31 1 21 23
M  V30 END BOND
M  V30 BEGIN COLLECTION
M  V30 MDLV30/STERAC1 ATOMS=(1 4)
M  V30 END COLLECTION
M  V30 END CTAB
M  END
>  <Structure No>
730

>  <Catalog ID>
Z217622688

>  <MW (desalted)>
395.452

>  <ClogP>
2.715

>  <HBD>
1

>  <TPSA>
78.950

>  <RotBonds>
6

>  <Target>
Poly [ADP-ribose] polymerase-1

>  <fromRegid>
CHEMBL2407971

>  <Similarity>
0.88

$$$$
Compound 731
Actelion Java MolfileCreator 2.0

  0  0  0  0  0  0              0 V3000
M  V30 BEGIN CTAB
M  V30 COUNTS 34 37 0 0 0
M  V30 BEGIN ATOM
M  V30 1 S 0.0 0.0 0.0 0
M  V30 2 C -0.0117 -1.4863 0.0 0
M  V30 3 C -1.3094 0.7667 0.0 0
M  V30 4 O -1.2386 -2.3593 0.0 0
M  V30 5 N 1.1914 -2.3593 0.0 0
M  V30 6 C -1.3212 2.2767 0.0 0
M  V30 7 C -0.7903 -3.7749 0.0 0
M  V30 8 N 0.7195 -3.7749 0.0 0
M  V30 9 O -0.0353 3.0317 0.0 0
M  V30 10 N -2.6306 3.0317 0.0 0
M  V30 11 C -1.6869 -4.9781 0.0 0
M  V30 12 C -2.6424 4.5417 0.0 0
M  V30 13 C -3.94 2.3003 0.0 0
M  V30 14 N -1.0852 -6.3347 0.0 0
M  V30 15 C -3.9518 5.3084 0.0 0
M  V30 16 C -1.3566 5.3084 0.0 0
M  V30 17 C -1.8402 -7.6206 0.0 0
M  V30 18 C 0.3656 -6.6297 0.0 0
M  V30 19 N -3.9636 6.8184 0.0 0
M  V30 20 N -5.2613 4.5652 0.0 0
M  V30 21 O -0.0707 4.5652 0.0 0
M  V30 22 N -1.3684 6.8184 0.0 0
M  V30 23 O -3.3384 -7.7621 0.0 0
M  V30 24 C -0.8493 -8.7177 0.0 0
M  V30 25 C 0.5072 -8.1042 0.0 0
M  V30 26 C -2.6778 7.5734 0.0 0
M  V30 27 C -5.273 7.5734 0.0 0
M  V30 28 O -2.6896 9.0834 0.0 0
M  V30 29 C -5.2848 9.0834 0.0 0
M  V30 30 C -6.5943 9.8383 0.0 0
M  V30 31 C -3.999 9.8383 0.0 0
M  V30 32 C -6.6061 11.3483 0.0 0
M  V30 33 C -4.0108 11.3483 0.0 0
M  V30 34 C -5.3202 12.1033 0.0 0
M  V30 END ATOM
M  V30 BEGIN BOND
M  V30 1 1 1 2
M  V30 2 1 1 3
M  V30 3 1 2 4
M  V30 4 2 2 5
M  V30 5 1 3 6
M  V30 6 1 4 7
M  V30 7 1 5 8
M  V30 8 2 6 9
M  V30 9 1 6 10
M  V30 10 1 7 11
M  V30 11 1 10 12
M  V30 12 1 10 13
M  V30 13 1 11 14
M  V30 14 2 12 15
M  V30 15 1 12 16
M  V30 16 1 14 17
M  V30 17 1 14 18
M  V30 18 1 15 19
M  V30 19 1 15 20
M  V30 20 2 16 21
M  V30 21 1 16 22
M  V30 22 2 17 23
M  V30 23 1 17 24
M  V30 24 1 18 25
M  V30 25 1 19 26
M  V30 26 1 19 27
M  V30 27 2 26 28
M  V30 28 1 27 29
M  V30 29 2 29 30
M  V30 30 1 29 31
M  V30 31 1 30 32
M  V30 32 2 31 33
M  V30 33 2 32 34
M  V30 34 2 7 8
M  V30 35 1 22 26
M  V30 36 1 24 25
M  V30 37 1 33 34
M  V30 END BOND
M  V30 END CTAB
M  END
>  <Structure No>
731

>  <Catalog ID>
Z16988315

>  <MW (desalted)>
485.516

>  <ClogP>
-2.762

>  <HBD>
2

>  <TPSA>
154.970

>  <RotBonds>
8

>  <Target>
ATM

>  <fromRegid>


>  <Similarity>


$$$$
Compound 732
Actelion Java MolfileCreator 2.0

  0  0  0  0  0  0              0 V3000
M  V30 BEGIN CTAB
M  V30 COUNTS 24 26 0 0 0
M  V30 BEGIN ATOM
M  V30 1 O 0.0 0.0 0.0 0
M  V30 2 C -0.0117 1.506 0.0 0
M  V30 3 N -1.3177 2.259 0.0 0
M  V30 4 C 1.2707 2.259 0.0 0
M  V30 5 C -1.3295 3.765 0.0 0
M  V30 6 C 1.2589 3.765 0.0 0
M  V30 7 C 2.5531 1.5177 0.0 0
M  V30 8 N -0.047 4.518 0.0 0
M  V30 9 C -2.6355 4.518 0.0 0
M  V30 10 C 2.5414 4.518 0.0 0
M  V30 11 C 3.8356 2.2708 0.0 0
M  V30 12 O -3.9415 3.7885 0.0 0
M  V30 13 N -2.6473 6.024 0.0 0
M  V30 14 C 3.8238 3.7885 0.0 0
M  V30 15 C -1.3648 6.7771 0.0 0
M  V30 16 C -1.3765 8.2831 0.0 0
M  V30 17 C -2.6826 9.0361 0.0 0
M  V30 18 C -0.0941 9.0361 0.0 0
M  V30 19 C -2.6943 10.5421 0.0 0
M  V30 20 C -0.1058 10.5421 0.0 0
M  V30 21 C -1.4118 11.3069 0.0 0
M  V30 22 C -4.0003 11.3069 0.0 0
M  V30 23 O -4.0121 12.8129 0.0 0
M  V30 24 C -5.3181 13.5659 0.0 0
M  V30 END ATOM
M  V30 BEGIN BOND
M  V30 1 2 1 2
M  V30 2 1 2 3
M  V30 3 1 2 4
M  V30 4 1 3 5
M  V30 5 2 4 6
M  V30 6 1 4 7
M  V30 7 2 5 8
M  V30 8 1 5 9
M  V30 9 1 6 10
M  V30 10 2 7 11
M  V30 11 2 9 12
M  V30 12 1 9 13
M  V30 13 2 10 14
M  V30 14 1 13 15
M  V30 15 1 15 16
M  V30 16 2 16 17
M  V30 17 1 16 18
M  V30 18 1 17 19
M  V30 19 2 18 20
M  V30 20 2 19 21
M  V30 21 1 19 22
M  V30 22 1 22 23
M  V30 23 1 23 24
M  V30 24 1 6 8
M  V30 25 1 11 14
M  V30 26 1 20 21
M  V30 END BOND
M  V30 END CTAB
M  END
>  <Structure No>
732

>  <Catalog ID>
Z1149166617

>  <MW (desalted)>
323.346

>  <ClogP>
2.002

>  <HBD>
2

>  <TPSA>
79.790

>  <RotBonds>
5

>  <Target>
parp15, Tankyrase1

>  <fromRegid>


>  <Similarity>


$$$$
Compound 733
Actelion Java MolfileCreator 2.0

  0  0  0  0  0  0              0 V3000
M  V30 BEGIN CTAB
M  V30 COUNTS 20 22 0 0 0
M  V30 BEGIN ATOM
M  V30 1 S 0.0 0.0 0.0 0
M  V30 2 C 0.9987 1.1295 0.0 0
M  V30 3 C 0.7371 -1.2959 0.0 0
M  V30 4 C 2.366 0.5231 0.0 0
M  V30 5 C 2.1995 -0.9749 0.0 0
M  V30 6 C 3.6619 1.284 0.0 0
M  V30 7 N 4.9579 0.5469 0.0 0
M  V30 8 C 6.2539 1.3078 0.0 0
M  V30 9 O 6.242 2.8297 0.0 0
M  V30 10 C 7.5498 0.5706 0.0 0
M  V30 11 N 8.8458 1.3316 0.0 0
M  V30 12 N 7.5379 -0.9273 0.0 0
M  V30 13 C 10.1417 0.5944 0.0 0
M  V30 14 C 8.8339 -1.6764 0.0 0
M  V30 15 C 10.1298 -0.9036 0.0 0
M  V30 16 C 11.4377 1.3554 0.0 0
M  V30 17 O 8.822 -3.1745 0.0 0
M  V30 18 C 11.4258 -1.6526 0.0 0
M  V30 19 C 12.7337 0.6182 0.0 0
M  V30 20 C 12.7218 -0.8798 0.0 0
M  V30 END ATOM
M  V30 BEGIN BOND
M  V30 1 1 1 2
M  V30 2 1 1 3
M  V30 3 2 2 4
M  V30 4 2 3 5
M  V30 5 1 4 6
M  V30 6 1 6 7
M  V30 7 1 7 8
M  V30 8 2 8 9
M  V30 9 1 8 10
M  V30 10 2 10 11
M  V30 11 1 10 12
M  V30 12 1 11 13
M  V30 13 1 12 14
M  V30 14 2 13 15
M  V30 15 1 13 16
M  V30 16 2 14 17
M  V30 17 1 15 18
M  V30 18 2 16 19
M  V30 19 2 18 20
M  V30 20 1 4 5
M  V30 21 1 14 15
M  V30 22 1 19 20
M  V30 END BOND
M  V30 END CTAB
M  END
>  <Structure No>
733

>  <Catalog ID>
Z1149164350

>  <MW (desalted)>
285.321

>  <ClogP>
1.850

>  <HBD>
2

>  <TPSA>
70.560

>  <RotBonds>
3

>  <Target>
Tankyrase1

>  <fromRegid>


>  <Similarity>


$$$$
Compound 734
Actelion Java MolfileCreator 2.0

  0  0  0  0  0  0              0 V3000
M  V30 BEGIN CTAB
M  V30 COUNTS 25 27 0 0 0
M  V30 BEGIN ATOM
M  V30 1 O 0.0 0.0 0.0 0
M  V30 2 C -0.0117 1.5045 0.0 0
M  V30 3 N -1.3164 2.2567 0.0 0
M  V30 4 C 1.2694 2.2567 0.0 0
M  V30 5 C -1.3281 3.7612 0.0 0
M  V30 6 C 1.2576 3.7612 0.0 0
M  V30 7 C 2.5505 1.528 0.0 0
M  V30 8 N -0.047 4.5252 0.0 0
M  V30 9 C -2.6328 4.5252 0.0 0
M  V30 10 C 2.5388 4.5252 0.0 0
M  V30 11 C 3.8317 2.2802 0.0 0
M  V30 12 O -2.6446 6.0297 0.0 0
M  V30 13 N -3.9375 3.7847 0.0 0
M  V30 14 C 3.82 3.7847 0.0 0
M  V30 15 C -5.2422 4.5487 0.0 0
M  V30 16 C -6.5469 3.8082 0.0 0
M  V30 17 N -7.8516 4.5722 0.0 0
M  V30 18 C -9.1562 3.8317 0.0 0
M  V30 19 O -9.168 2.3507 0.0 0
M  V30 20 C -10.4609 4.5957 0.0 0
M  V30 21 C -10.4727 6.1002 0.0 0
M  V30 22 C -11.7656 3.8552 0.0 0
M  V30 23 N -11.7774 6.8525 0.0 0
M  V30 24 C -13.0703 4.6192 0.0 0
M  V30 25 C -13.082 6.1237 0.0 0
M  V30 END ATOM
M  V30 BEGIN BOND
M  V30 1 2 1 2
M  V30 2 1 2 3
M  V30 3 1 2 4
M  V30 4 1 3 5
M  V30 5 2 4 6
M  V30 6 1 4 7
M  V30 7 2 5 8
M  V30 8 1 5 9
M  V30 9 1 6 10
M  V30 10 2 7 11
M  V30 11 2 9 12
M  V30 12 1 9 13
M  V30 13 2 10 14
M  V30 14 1 13 15
M  V30 15 1 15 16
M  V30 16 1 16 17
M  V30 17 1 17 18
M  V30 18 2 18 19
M  V30 19 1 18 20
M  V30 20 2 20 21
M  V30 21 1 20 22
M  V30 22 1 21 23
M  V30 23 2 22 24
M  V30 24 2 23 25
M  V30 25 1 6 8
M  V30 26 1 11 14
M  V30 27 1 24 25
M  V30 END BOND
M  V30 END CTAB
M  END
>  <Structure No>
734

>  <Catalog ID>
Z1149164411

>  <MW (desalted)>
337.333

>  <ClogP>
0.592

>  <HBD>
3

>  <TPSA>
112.550

>  <RotBonds>
5

>  <Target>
Tankyrase1

>  <fromRegid>


>  <Similarity>


$$$$
Compound 735
Actelion Java MolfileCreator 2.0

  0  0  0  0  0  0              0 V3000
M  V30 BEGIN CTAB
M  V30 COUNTS 25 27 0 0 0
M  V30 BEGIN ATOM
M  V30 1 O 0.0 0.0 0.0 0
M  V30 2 C 1.2937 -0.7477 0.0 0
M  V30 3 N 2.5874 0.0237 0.0 0
M  V30 4 C 1.2818 -2.2432 0.0 0
M  V30 5 C 3.8811 -0.724 0.0 0
M  V30 6 C 2.5755 -2.9791 0.0 0
M  V30 7 C -0.0356 -2.9791 0.0 0
M  V30 8 N 3.8693 -2.2195 0.0 0
M  V30 9 C 5.1749 0.0474 0.0 0
M  V30 10 C 2.5637 -4.4746 0.0 0
M  V30 11 C -0.0474 -4.4746 0.0 0
M  V30 12 O 5.163 1.5667 0.0 0
M  V30 13 N 6.4686 -0.7002 0.0 0
M  V30 14 C 1.2462 -5.2223 0.0 0
M  V30 15 C 7.7623 0.0712 0.0 0
M  V30 16 C 9.056 -0.6765 0.0 0 CFG=1
M  V30 17 N 10.3498 0.0949 0.0 0
M  V30 18 C 9.0442 -2.172 0.0 0
M  V30 19 C 11.6435 -0.6527 0.0 0
M  V30 20 C 10.3379 1.6141 0.0 0
M  V30 21 C 12.9372 0.1186 0.0 0
M  V30 22 C 11.6316 -2.1482 0.0 0
M  V30 23 C 14.231 -0.629 0.0 0
M  V30 24 C 12.9254 -2.8841 0.0 0
M  V30 25 C 14.2191 -2.1245 0.0 0
M  V30 END ATOM
M  V30 BEGIN BOND
M  V30 1 2 1 2
M  V30 2 1 2 3
M  V30 3 1 2 4
M  V30 4 1 3 5
M  V30 5 2 4 6
M  V30 6 1 4 7
M  V30 7 2 5 8
M  V30 8 1 5 9
M  V30 9 1 6 10
M  V30 10 2 7 11
M  V30 11 2 9 12
M  V30 12 1 9 13
M  V30 13 2 10 14
M  V30 14 1 13 15
M  V30 15 1 15 16
M  V30 16 1 16 17 CFG=1
M  V30 17 1 16 18
M  V30 18 1 17 19
M  V30 19 1 17 20
M  V30 20 2 19 21
M  V30 21 1 19 22
M  V30 22 1 21 23
M  V30 23 2 22 24
M  V30 24 2 23 25
M  V30 25 1 6 8
M  V30 26 1 11 14
M  V30 27 1 24 25
M  V30 END BOND
M  V30 BEGIN COLLECTION
M  V30 MDLV30/STERAC1 ATOMS=(1 16)
M  V30 END COLLECTION
M  V30 END CTAB
M  END
>  <Structure No>
735

>  <Catalog ID>
Z1149165276

>  <MW (desalted)>
336.388

>  <ClogP>
2.920

>  <HBD>
2

>  <TPSA>
73.800

>  <RotBonds>
5

>  <Target>
parp3

>  <fromRegid>


>  <Similarity>


$$$$
Compound 736
Actelion Java MolfileCreator 2.0

  0  0  0  0  0  0              0 V3000
M  V30 BEGIN CTAB
M  V30 COUNTS 22 24 0 0 0
M  V30 BEGIN ATOM
M  V30 1 S 0.0 0.0 0.0 0
M  V30 2 C 0.1422 1.5055 0.0 0
M  V30 3 C -1.4818 -0.2963 0.0 0
M  V30 4 C -1.2447 2.1338 0.0 0
M  V30 5 C 1.4344 2.2643 0.0 0
M  V30 6 C -2.2405 1.0195 0.0 0
M  V30 7 C -2.1101 -1.6596 0.0 0
M  V30 8 N 2.7266 1.5292 0.0 0
M  V30 9 C -3.6157 -1.8019 0.0 0
M  V30 10 C 4.0188 2.288 0.0 0
M  V30 11 O 4.0069 3.8054 0.0 0
M  V30 12 C 5.311 1.553 0.0 0
M  V30 13 N 6.6032 2.3117 0.0 0
M  V30 14 N 5.2991 0.0592 0.0 0
M  V30 15 C 7.8954 1.5767 0.0 0
M  V30 16 C 6.5913 -0.6875 0.0 0
M  V30 17 C 7.8835 0.0829 0.0 0
M  V30 18 C 9.1876 2.3354 0.0 0
M  V30 19 O 6.5795 -2.1813 0.0 0
M  V30 20 C 9.1757 -0.6638 0.0 0
M  V30 21 C 10.4797 1.6004 0.0 0
M  V30 22 C 10.4679 0.1066 0.0 0
M  V30 END ATOM
M  V30 BEGIN BOND
M  V30 1 1 1 2
M  V30 2 1 1 3
M  V30 3 2 2 4
M  V30 4 1 2 5
M  V30 5 2 3 6
M  V30 6 1 3 7
M  V30 7 1 5 8
M  V30 8 1 7 9
M  V30 9 1 8 10
M  V30 10 2 10 11
M  V30 11 1 10 12
M  V30 12 2 12 13
M  V30 13 1 12 14
M  V30 14 1 13 15
M  V30 15 1 14 16
M  V30 16 2 15 17
M  V30 17 1 15 18
M  V30 18 2 16 19
M  V30 19 1 17 20
M  V30 20 2 18 21
M  V30 21 2 20 22
M  V30 22 1 4 6
M  V30 23 1 16 17
M  V30 24 1 21 22
M  V30 END BOND
M  V30 END CTAB
M  END
>  <Structure No>
736

>  <Catalog ID>
Z1149165310

>  <MW (desalted)>
313.374

>  <ClogP>
2.878

>  <HBD>
2

>  <TPSA>
70.560

>  <RotBonds>
4

>  <Target>
Tankyrase1, parp3

>  <fromRegid>


>  <Similarity>


$$$$
Compound 737
Actelion Java MolfileCreator 2.0

  0  0  0  0  0  0              0 V3000
M  V30 BEGIN CTAB
M  V30 COUNTS 24 27 0 0 0
M  V30 BEGIN ATOM
M  V30 1 O 0.0 0.0 0.0 0
M  V30 2 C -0.0117 1.5069 0.0 0
M  V30 3 N -1.3185 2.2721 0.0 0
M  V30 4 C 1.2714 2.2721 0.0 0
M  V30 5 C -1.3303 3.7791 0.0 0
M  V30 6 C 1.2597 3.7791 0.0 0
M  V30 7 C 2.5547 1.5304 0.0 0
M  V30 8 N -0.047 4.5325 0.0 0
M  V30 9 C -2.6371 4.5325 0.0 0
M  V30 10 C 2.5429 4.5325 0.0 0
M  V30 11 C 3.8379 2.2957 0.0 0
M  V30 12 O -2.6489 6.0395 0.0 0
M  V30 13 N -3.9439 3.8026 0.0 0
M  V30 14 C 3.8262 3.8026 0.0 0
M  V30 15 C -5.2507 4.5561 0.0 0
M  V30 16 C -6.5575 3.8262 0.0 0
M  V30 17 N -6.7223 2.3545 0.0 0
M  V30 18 N -7.9349 4.4501 0.0 0
M  V30 19 N -8.1939 2.0602 0.0 0
M  V30 20 C -8.9474 3.3552 0.0 0
M  V30 21 C -8.4058 5.8864 0.0 0
M  V30 22 C -10.419 3.6731 0.0 0
M  V30 23 C -9.8775 6.2043 0.0 0
M  V30 24 C -10.8899 5.1094 0.0 0
M  V30 END ATOM
M  V30 BEGIN BOND
M  V30 1 2 1 2
M  V30 2 1 2 3
M  V30 3 1 2 4
M  V30 4 1 3 5
M  V30 5 2 4 6
M  V30 6 1 4 7
M  V30 7 2 5 8
M  V30 8 1 5 9
M  V30 9 1 6 10
M  V30 10 2 7 11
M  V30 11 2 9 12
M  V30 12 1 9 13
M  V30 13 2 10 14
M  V30 14 1 13 15
M  V30 15 1 15 16
M  V30 16 2 16 17
M  V30 17 1 16 18
M  V30 18 1 17 19
M  V30 19 1 18 20
M  V30 20 1 18 21
M  V30 21 1 20 22
M  V30 22 1 21 23
M  V30 23 1 22 24
M  V30 24 1 6 8
M  V30 25 1 11 14
M  V30 26 2 19 20
M  V30 27 1 23 24
M  V30 END BOND
M  V30 END CTAB
M  END
>  <Structure No>
737

>  <Catalog ID>
Z1149166864

>  <MW (desalted)>
324.337

>  <ClogP>
-0.175

>  <HBD>
2

>  <TPSA>
101.270

>  <RotBonds>
3

>  <Target>
parp15, Tankyrase1, parp3

>  <fromRegid>


>  <Similarity>


$$$$
Compound 738
Actelion Java MolfileCreator 2.0

  0  0  0  0  0  0              0 V3000
M  V30 BEGIN CTAB
M  V30 COUNTS 26 28 0 0 0
M  V30 BEGIN ATOM
M  V30 1 F 0.0 0.0 0.0 0
M  V30 2 C -0.0118 1.5139 0.0 0
M  V30 3 C -1.3247 2.2709 0.0 0
M  V30 4 C 1.2773 2.2709 0.0 0
M  V30 5 C -2.6375 1.5375 0.0 0
M  V30 6 C -1.3365 3.7848 0.0 0
M  V30 7 C 1.2655 3.7848 0.0 0
M  V30 8 O -3.9504 2.2945 0.0 0
M  V30 9 N -2.6494 0.0473 0.0 0
M  V30 10 C -0.0473 4.5536 0.0 0
M  V30 11 C -3.9622 -0.686 0.0 0
M  V30 12 C -1.3601 -0.686 0.0 0
M  V30 13 C -3.9741 -2.1762 0.0 0
M  V30 14 C -1.372 -2.1762 0.0 0
M  V30 15 N -2.6848 -2.9096 0.0 0
M  V30 16 C -2.6967 -4.3999 0.0 0
M  V30 17 O -4.0095 -5.145 0.0 0
M  V30 18 C -1.4074 -5.145 0.0 0
M  V30 19 C -0.1182 -4.388 0.0 0
M  V30 20 C -1.4193 -6.6353 0.0 0
M  V30 21 O -0.1301 -2.8741 0.0 0
M  V30 22 C 1.1709 -5.1332 0.0 0
M  V30 23 C -0.1301 -7.3804 0.0 0
M  V30 24 C 1.1591 -2.1171 0.0 0
M  V30 25 C 1.1591 -6.6235 0.0 0
M  V30 26 C 1.1472 -0.6032 0.0 0
M  V30 END ATOM
M  V30 BEGIN BOND
M  V30 1 1 1 2
M  V30 2 2 2 3
M  V30 3 1 2 4
M  V30 4 1 3 5
M  V30 5 1 3 6
M  V30 6 2 4 7
M  V30 7 2 5 8
M  V30 8 1 5 9
M  V30 9 2 6 10
M  V30 10 1 9 11
M  V30 11 1 9 12
M  V30 12 1 11 13
M  V30 13 1 12 14
M  V30 14 1 13 15
M  V30 15 1 15 16
M  V30 16 2 16 17
M  V30 17 1 16 18
M  V30 18 2 18 19
M  V30 19 1 18 20
M  V30 20 1 19 21
M  V30 21 1 19 22
M  V30 22 2 20 23
M  V30 23 1 21 24
M  V30 24 2 22 25
M  V30 25 1 24 26
M  V30 26 1 7 10
M  V30 27 1 14 15
M  V30 28 1 23 25
M  V30 END BOND
M  V30 END CTAB
M  END
>  <Structure No>
738

>  <Catalog ID>
Z288801502

>  <MW (desalted)>
356.391

>  <ClogP>
2.905

>  <HBD>
0

>  <TPSA>
49.850

>  <RotBonds>
4

>  <Target>
Poly [ADP-ribose] polymerase-1

>  <fromRegid>
CHEMBL455549

>  <Similarity>
0.88

$$$$
Compound 739
Actelion Java MolfileCreator 2.0

  0  0  0  0  0  0              0 V3000
M  V30 BEGIN CTAB
M  V30 COUNTS 24 26 0 0 0
M  V30 BEGIN ATOM
M  V30 1 O 0.0 0.0 0.0 0
M  V30 2 C -0.0117 1.5071 0.0 0
M  V30 3 N -1.3187 2.2725 0.0 0
M  V30 4 C 1.2716 2.2725 0.0 0
M  V30 5 C -1.3305 3.7796 0.0 0
M  V30 6 C 1.2598 3.7796 0.0 0
M  V30 7 C 2.5551 1.5307 0.0 0
M  V30 8 N -0.047 4.5332 0.0 0
M  V30 9 C -2.6375 4.5332 0.0 0
M  V30 10 C 2.5433 4.5332 0.0 0
M  V30 11 C 3.8385 2.296 0.0 0
M  V30 12 O -2.6493 6.0404 0.0 0
M  V30 13 N -3.9445 3.8032 0.0 0
M  V30 14 C 3.8267 3.8032 0.0 0
M  V30 15 C -5.2515 4.5568 0.0 0
M  V30 16 C -6.5585 3.8267 0.0 0
M  V30 17 C -7.8655 4.5803 0.0 0
M  V30 18 C -6.5703 2.3431 0.0 0
M  V30 19 C -9.1725 3.8503 0.0 0
M  V30 20 C -7.8772 1.6013 0.0 0
M  V30 21 O -10.4795 4.6039 0.0 0
M  V30 22 N -9.1842 2.3667 0.0 0
M  V30 23 C -11.7865 3.8738 0.0 0
M  V30 24 C -13.0935 4.6274 0.0 0
M  V30 END ATOM
M  V30 BEGIN BOND
M  V30 1 2 1 2
M  V30 2 1 2 3
M  V30 3 1 2 4
M  V30 4 1 3 5
M  V30 5 2 4 6
M  V30 6 1 4 7
M  V30 7 2 5 8
M  V30 8 1 5 9
M  V30 9 1 6 10
M  V30 10 2 7 11
M  V30 11 2 9 12
M  V30 12 1 9 13
M  V30 13 2 10 14
M  V30 14 1 13 15
M  V30 15 1 15 16
M  V30 16 2 16 17
M  V30 17 1 16 18
M  V30 18 1 17 19
M  V30 19 2 18 20
M  V30 20 1 19 21
M  V30 21 2 19 22
M  V30 22 1 21 23
M  V30 23 1 23 24
M  V30 24 1 6 8
M  V30 25 1 11 14
M  V30 26 1 20 22
M  V30 END BOND
M  V30 END CTAB
M  END
>  <Structure No>
739

>  <Catalog ID>
Z1149165532

>  <MW (desalted)>
324.334

>  <ClogP>
2.056

>  <HBD>
2

>  <TPSA>
92.680

>  <RotBonds>
5

>  <Target>
Tankyrase1

>  <fromRegid>


>  <Similarity>


$$$$
Compound 740
Actelion Java MolfileCreator 2.0

  0  0  0  0  0  0              0 V3000
M  V30 BEGIN CTAB
M  V30 COUNTS 30 33 0 0 0
M  V30 BEGIN ATOM
M  V30 1 S 0.0 0.0 0.0 0
M  V30 2 C -1.3834 -0.603 0.0 0
M  V30 3 C 0.9932 -1.0996 0.0 0
M  V30 4 S -2.696 0.1537 0.0 0
M  V30 5 N -1.2415 -2.0811 0.0 0
M  V30 6 N 0.2364 -2.3885 0.0 0
M  V30 7 N 2.4713 -0.9341 0.0 0
M  V30 8 C -4.0085 -0.5794 0.0 0
M  V30 9 C 3.3463 -2.1402 0.0 0
M  V30 10 C -5.321 0.1773 0.0 0
M  V30 11 C 4.8244 -1.9747 0.0 0
M  V30 12 N -6.6336 -0.5557 0.0 0
M  V30 13 N -5.3329 1.6909 0.0 0
M  V30 14 C 5.6994 -3.1808 0.0 0
M  V30 15 C -7.9461 0.201 0.0 0
M  V30 16 C -6.6454 2.4476 0.0 0
M  V30 17 C 7.1775 -3.0152 0.0 0
M  V30 18 C 5.0727 -4.5406 0.0 0
M  V30 19 C -7.9579 1.7145 0.0 0
M  V30 20 C -9.3887 -0.2483 0.0 0
M  V30 21 O -6.6572 3.9612 0.0 0
M  V30 22 C 8.0525 -4.2213 0.0 0
M  V30 23 C 5.9477 -5.7467 0.0 0
M  V30 24 S -9.4005 2.1875 0.0 0
M  V30 25 C -10.2874 0.9814 0.0 0
M  V30 26 O 9.5306 -4.0558 0.0 0
M  V30 27 C 7.4258 -5.5812 0.0 0
M  V30 28 C 10.4056 -5.2619 0.0 0
M  V30 29 O 8.3008 -6.7873 0.0 0
M  V30 30 C 9.7789 -6.6217 0.0 0
M  V30 END ATOM
M  V30 BEGIN BOND
M  V30 1 1 1 2
M  V30 2 1 1 3
M  V30 3 1 2 4
M  V30 4 2 2 5
M  V30 5 2 3 6
M  V30 6 1 3 7
M  V30 7 1 4 8
M  V30 8 1 7 9
M  V30 9 1 8 10
M  V30 10 1 9 11
M  V30 11 2 10 12
M  V30 12 1 10 13
M  V30 13 1 11 14
M  V30 14 1 12 15
M  V30 15 1 13 16
M  V30 16 2 14 17
M  V30 17 1 14 18
M  V30 18 2 15 19
M  V30 19 1 15 20
M  V30 20 2 16 21
M  V30 21 1 17 22
M  V30 22 2 18 23
M  V30 23 1 19 24
M  V30 24 2 20 25
M  V30 25 1 22 26
M  V30 26 2 22 27
M  V30 27 1 26 28
M  V30 28 1 27 29
M  V30 29 1 29 30
M  V30 30 1 5 6
M  V30 31 1 16 19
M  V30 32 1 23 27
M  V30 33 1 24 25
M  V30 END BOND
M  V30 END CTAB
M  END
>  <Structure No>
740

>  <Catalog ID>
Z17061015

>  <MW (desalted)>
461.581

>  <ClogP>
2.519

>  <HBD>
2

>  <TPSA>
97.730

>  <RotBonds>
9

>  <Target>
Tankyrase1

>  <fromRegid>


>  <Similarity>


$$$$
Compound 741
Actelion Java MolfileCreator 2.0

  0  0  0  0  0  0              0 V3000
M  V30 BEGIN CTAB
M  V30 COUNTS 28 31 0 0 0
M  V30 BEGIN ATOM
M  V30 1 S 0.0 0.0 0.0 0
M  V30 2 C -0.3654 1.4619 0.0 0
M  V30 3 C 1.4265 -0.4008 0.0 0 CFG=2
M  V30 4 N -1.7684 2.0396 0.0 0
M  V30 5 N 0.5894 2.6173 0.0 0
M  V30 6 C 1.7684 -1.8391 0.0 0
M  V30 7 C 2.4994 0.6484 0.0 0
M  V30 8 N -1.6741 3.5486 0.0 0
M  V30 9 C 2.0749 2.6762 0.0 0
M  V30 10 C -0.2122 3.9023 0.0 0
M  V30 11 O 3.1949 -2.24 0.0 0
M  V30 12 N 0.672 -2.8648 0.0 0
M  V30 13 C 2.7705 4.0084 0.0 0
M  V30 14 C 2.853 1.4147 0.0 0
M  V30 15 N 0.4833 5.2346 0.0 0
M  V30 16 C 1.9688 5.2935 0.0 0
M  V30 17 C 4.256 4.0674 0.0 0
M  V30 18 C 4.3385 1.4737 0.0 0
M  V30 19 C -0.3183 6.5196 0.0 0
M  V30 20 O 2.6644 6.6257 0.0 0
M  V30 21 C 5.0341 2.8059 0.0 0
M  V30 22 C 0.3772 7.8519 0.0 0
M  V30 23 C -1.8273 6.4843 0.0 0
M  V30 24 C -0.4244 9.1369 0.0 0
M  V30 25 C 1.8627 7.9108 0.0 0
M  V30 26 C -2.629 7.7693 0.0 0
M  V30 27 C -1.9335 9.1016 0.0 0
M  V30 28 C -4.1381 7.734 0.0 0
M  V30 END ATOM
M  V30 BEGIN BOND
M  V30 1 1 1 2
M  V30 2 1 3 1 CFG=1
M  V30 3 2 2 4
M  V30 4 1 2 5
M  V30 5 1 3 6
M  V30 6 1 3 7
M  V30 7 1 4 8
M  V30 8 1 5 9
M  V30 9 1 5 10
M  V30 10 2 6 11
M  V30 11 1 6 12
M  V30 12 2 9 13
M  V30 13 1 9 14
M  V30 14 1 10 15
M  V30 15 1 13 16
M  V30 16 1 13 17
M  V30 17 2 14 18
M  V30 18 1 15 19
M  V30 19 2 16 20
M  V30 20 2 17 21
M  V30 21 2 19 22
M  V30 22 1 19 23
M  V30 23 1 22 24
M  V30 24 1 22 25
M  V30 25 2 23 26
M  V30 26 2 24 27
M  V30 27 1 26 28
M  V30 28 2 8 10
M  V30 29 1 15 16
M  V30 30 1 18 21
M  V30 31 1 26 27
M  V30 END BOND
M  V30 BEGIN COLLECTION
M  V30 MDLV30/STERAC1 ATOMS=(1 3)
M  V30 END COLLECTION
M  V30 END CTAB
M  END
>  <Structure No>
741

>  <Catalog ID>
Z17064424

>  <MW (desalted)>
393.462

>  <ClogP>
2.605

>  <HBD>
1

>  <TPSA>
94.110

>  <RotBonds>
3

>  <Target>
parp14

>  <fromRegid>


>  <Similarity>


$$$$
Compound 742
Actelion Java MolfileCreator 2.0

  0  0  0  0  0  0              0 V3000
M  V30 BEGIN CTAB
M  V30 COUNTS 24 27 0 0 0
M  V30 BEGIN ATOM
M  V30 1 Cl 0.0 0.0 0.0 0
M  V30 2 C 0.7375 -1.2966 0.0 0
M  V30 3 C -0.0237 -2.5933 0.0 0
M  V30 4 C 2.2364 -1.2847 0.0 0
M  V30 5 N 0.7137 -3.89 0.0 0
M  V30 6 C 2.9859 -2.5814 0.0 0
M  V30 7 C 2.2126 -3.8781 0.0 0
M  V30 8 N 4.4491 -2.8788 0.0 0
M  V30 9 N 3.2119 -4.9844 0.0 0
M  V30 10 C 4.5919 -4.3658 0.0 0
M  V30 11 S 5.8885 -5.1034 0.0 0
M  V30 12 C 7.1852 -4.342 0.0 0 CFG=2
M  V30 13 C 8.4819 -5.0796 0.0 0
M  V30 14 C 7.1733 -2.8193 0.0 0
M  V30 15 N 9.7786 -4.3182 0.0 0
M  V30 16 N 8.47 -6.5785 0.0 0
M  V30 17 C 11.0753 -5.0558 0.0 0
M  V30 18 C 9.7667 -7.328 0.0 0
M  V30 19 C 11.0634 -6.5547 0.0 0
M  V30 20 C 12.3719 -4.2945 0.0 0
M  V30 21 O 9.7548 -8.8269 0.0 0
M  V30 22 C 12.36 -7.3042 0.0 0
M  V30 23 C 13.6686 -5.032 0.0 0
M  V30 24 C 13.6567 -6.5428 0.0 0
M  V30 END ATOM
M  V30 BEGIN BOND
M  V30 1 1 1 2
M  V30 2 2 2 3
M  V30 3 1 2 4
M  V30 4 1 3 5
M  V30 5 2 4 6
M  V30 6 2 5 7
M  V30 7 1 6 8
M  V30 8 1 7 9
M  V30 9 1 8 10
M  V30 10 1 10 11
M  V30 11 1 12 11 CFG=1
M  V30 12 1 12 13
M  V30 13 1 12 14
M  V30 14 2 13 15
M  V30 15 1 13 16
M  V30 16 1 15 17
M  V30 17 1 16 18
M  V30 18 2 17 19
M  V30 19 1 17 20
M  V30 20 2 18 21
M  V30 21 1 19 22
M  V30 22 2 20 23
M  V30 23 2 22 24
M  V30 24 1 6 7
M  V30 25 2 9 10
M  V30 26 1 18 19
M  V30 27 1 23 24
M  V30 END BOND
M  V30 BEGIN COLLECTION
M  V30 MDLV30/STERAC1 ATOMS=(1 12)
M  V30 END COLLECTION
M  V30 END CTAB
M  END
>  <Structure No>
742

>  <Catalog ID>
Z237516006

>  <MW (desalted)>
357.817

>  <ClogP>
2.633

>  <HBD>
2

>  <TPSA>
83.030

>  <RotBonds>
3

>  <Target>
parp10

>  <fromRegid>


>  <Similarity>


$$$$
Compound 743
Actelion Java MolfileCreator 2.0

  0  0  0  0  0  0              0 V3000
M  V30 BEGIN CTAB
M  V30 COUNTS 27 30 0 0 0
M  V30 BEGIN ATOM
M  V30 1 F 0.0 0.0 0.0 0
M  V30 2 C -1.4358 -0.4472 0.0 0
M  V30 3 C -2.5539 0.5649 0.0 0
M  V30 4 C -1.7536 -1.8948 0.0 0
M  V30 5 C -3.9897 0.1176 0.0 0
M  V30 6 C -3.1894 -2.342 0.0 0
M  V30 7 C -4.3075 -1.3299 0.0 0
M  V30 8 C -5.1078 1.1298 0.0 0
M  V30 9 C -6.5437 0.6826 0.0 0 CFG=2
M  V30 10 N -7.7677 1.577 0.0 0
M  V30 11 C -7.0144 -0.7296 0.0 0
M  V30 12 C -7.7794 3.0835 0.0 0
M  V30 13 C -8.9917 0.7061 0.0 0
M  V30 14 C -8.5209 -0.7179 0.0 0
M  V30 15 O -6.4966 3.8485 0.0 0
M  V30 16 C -9.0858 3.8485 0.0 0
M  V30 17 C -9.0976 5.355 0.0 0
M  V30 18 N -10.404 6.1082 0.0 0
M  V30 19 C -7.8147 6.1082 0.0 0
M  V30 20 N -10.4157 7.6147 0.0 0
M  V30 21 C -7.8265 7.6147 0.0 0
M  V30 22 C -6.5319 5.3667 0.0 0
M  V30 23 C -9.1329 8.3679 0.0 0
M  V30 24 C -6.5437 8.3679 0.0 0
M  V30 25 C -5.249 6.12 0.0 0
M  V30 26 O -9.1447 9.8744 0.0 0
M  V30 27 C -5.2608 7.6382 0.0 0
M  V30 END ATOM
M  V30 BEGIN BOND
M  V30 1 1 1 2
M  V30 2 2 2 3
M  V30 3 1 2 4
M  V30 4 1 3 5
M  V30 5 2 4 6
M  V30 6 2 5 7
M  V30 7 1 5 8
M  V30 8 1 9 8 CFG=1
M  V30 9 1 9 10
M  V30 10 1 9 11
M  V30 11 1 10 12
M  V30 12 1 10 13
M  V30 13 1 11 14
M  V30 14 2 12 15
M  V30 15 1 12 16
M  V30 16 1 16 17
M  V30 17 2 17 18
M  V30 18 1 17 19
M  V30 19 1 18 20
M  V30 20 2 19 21
M  V30 21 1 19 22
M  V30 22 1 20 23
M  V30 23 1 21 24
M  V30 24 2 22 25
M  V30 25 2 23 26
M  V30 26 2 24 27
M  V30 27 1 6 7
M  V30 28 1 13 14
M  V30 29 1 21 23
M  V30 30 1 25 27
M  V30 END BOND
M  V30 BEGIN COLLECTION
M  V30 MDLV30/STERAC1 ATOMS=(1 9)
M  V30 END COLLECTION
M  V30 END CTAB
M  END
>  <Structure No>
743

>  <Catalog ID>
Z511988090

>  <MW (desalted)>
365.401

>  <ClogP>
1.933

>  <HBD>
1

>  <TPSA>
61.770

>  <RotBonds>
4

>  <Target>
parp3

>  <fromRegid>


>  <Similarity>


$$$$
Compound 744
Actelion Java MolfileCreator 2.0

  0  0  0  0  0  0              0 V3000
M  V30 BEGIN CTAB
M  V30 COUNTS 27 30 0 0 0
M  V30 BEGIN ATOM
M  V30 1 S 0.0 0.0 0.0 0
M  V30 2 C -1.3106 0.7675 0.0 0
M  V30 3 C 1.287 0.7675 0.0 0
M  V30 4 N -1.4759 2.2671 0.0 0
M  V30 5 N -2.6921 0.1653 0.0 0
M  V30 6 C 2.5741 0.0236 0.0 0
M  V30 7 N -2.9519 2.5859 0.0 0
M  V30 8 C -3.7076 1.287 0.0 0
M  V30 9 C -3.011 -1.287 0.0 0
M  V30 10 N 3.8611 0.7911 0.0 0
M  V30 11 N 2.5623 -1.4641 0.0 0
M  V30 12 C -5.2072 1.1453 0.0 0
M  V30 13 C -1.9128 -2.2789 0.0 0
M  V30 14 C 5.1482 0.0472 0.0 0
M  V30 15 C 3.8493 -2.208 0.0 0
M  V30 16 C -6.1046 2.3733 0.0 0
M  V30 17 C 5.1364 -1.4405 0.0 0
M  V30 18 C 6.4353 0.8147 0.0 0
M  V30 19 O 3.8375 -3.6958 0.0 0
M  V30 20 C -7.6042 2.2316 0.0 0
M  V30 21 C -5.5024 3.7549 0.0 0
M  V30 22 C 6.4234 -2.1844 0.0 0
M  V30 23 C 7.7223 0.0708 0.0 0
M  V30 24 C -8.5016 3.4597 0.0 0
M  V30 25 C -6.3998 4.9829 0.0 0
M  V30 26 C 7.7105 -1.4169 0.0 0
M  V30 27 C -7.8994 4.8412 0.0 0
M  V30 END ATOM
M  V30 BEGIN BOND
M  V30 1 1 1 2
M  V30 2 1 1 3
M  V30 3 2 2 4
M  V30 4 1 2 5
M  V30 5 1 3 6
M  V30 6 1 4 7
M  V30 7 1 5 8
M  V30 8 1 5 9
M  V30 9 2 6 10
M  V30 10 1 6 11
M  V30 11 1 8 12
M  V30 12 1 9 13
M  V30 13 1 10 14
M  V30 14 1 11 15
M  V30 15 1 12 16
M  V30 16 2 14 17
M  V30 17 1 14 18
M  V30 18 2 15 19
M  V30 19 2 16 20
M  V30 20 1 16 21
M  V30 21 1 17 22
M  V30 22 2 18 23
M  V30 23 1 20 24
M  V30 24 2 21 25
M  V30 25 2 22 26
M  V30 26 2 24 27
M  V30 27 2 7 8
M  V30 28 1 15 17
M  V30 29 1 23 26
M  V30 30 1 25 27
M  V30 END BOND
M  V30 END CTAB
M  END
>  <Structure No>
744

>  <Catalog ID>
Z17182329

>  <MW (desalted)>
377.463

>  <ClogP>
1.846

>  <HBD>
1

>  <TPSA>
72.170

>  <RotBonds>
6

>  <Target>
parp15, parp3

>  <fromRegid>


>  <Similarity>


$$$$
Compound 745
Actelion Java MolfileCreator 2.0

  0  0  0  0  0  0              0 V3000
M  V30 BEGIN CTAB
M  V30 COUNTS 27 28 0 0 0
M  V30 BEGIN ATOM
M  V30 1 S 0.0 0.0 0.0 0
M  V30 2 O -0.7527 -1.2819 0.0 0
M  V30 3 O 0.7409 1.3054 0.0 0
M  V30 4 C -1.3054 0.7527 0.0 0
M  V30 5 C 1.2819 -0.7291 0.0 0
M  V30 6 C -1.3172 2.2581 0.0 0
M  V30 7 C -2.6109 0.0235 0.0 0
M  V30 8 C 1.2701 -2.211 0.0 0
M  V30 9 C -2.6227 3.0108 0.0 0
M  V30 10 C -3.9164 0.7762 0.0 0
M  V30 11 O 2.5521 -2.9402 0.0 0
M  V30 12 C -3.9282 2.2698 0.0 0
M  V30 13 C -5.2336 3.0226 0.0 0
M  V30 14 N -6.5391 2.2816 0.0 0
M  V30 15 C -7.8446 3.0343 0.0 0
M  V30 16 O -7.8564 4.5397 0.0 0
M  V30 17 N -9.1501 2.2934 0.0 0
M  V30 18 C -10.4556 3.0461 0.0 0
M  V30 19 C -11.761 2.3051 0.0 0
M  V30 20 C -10.4673 4.5515 0.0 0
M  V30 21 C -13.0665 3.0578 0.0 0
M  V30 22 C -11.7728 5.3042 0.0 0
M  V30 23 F -14.372 2.3169 0.0 0
M  V30 24 C -13.0783 4.5633 0.0 0
M  V30 25 C -14.3838 5.316 0.0 0
M  V30 26 C -15.6893 4.5868 0.0 0
M  V30 27 C -14.3955 6.8214 0.0 0
M  V30 END ATOM
M  V30 BEGIN BOND
M  V30 1 2 1 2
M  V30 2 2 1 3
M  V30 3 1 1 4
M  V30 4 1 1 5
M  V30 5 2 4 6
M  V30 6 1 4 7
M  V30 7 1 5 8
M  V30 8 1 6 9
M  V30 9 2 7 10
M  V30 10 1 8 11
M  V30 11 2 9 12
M  V30 12 1 12 13
M  V30 13 1 13 14
M  V30 14 1 14 15
M  V30 15 2 15 16
M  V30 16 1 15 17
M  V30 17 1 17 18
M  V30 18 2 18 19
M  V30 19 1 18 20
M  V30 20 1 19 21
M  V30 21 2 20 22
M  V30 22 1 21 23
M  V30 23 2 21 24
M  V30 24 1 24 25
M  V30 25 1 25 26
M  V30 26 1 25 27
M  V30 27 1 10 12
M  V30 28 1 22 24
M  V30 END BOND
M  V30 END CTAB
M  END
>  <Structure No>
745

>  <Catalog ID>
Z1845785044

>  <MW (desalted)>
394.460

>  <ClogP>
2.633

>  <HBD>
3

>  <TPSA>
95.500

>  <RotBonds>
7

>  <Target>
DNA_pk

>  <fromRegid>


>  <Similarity>


$$$$
Compound 746
Actelion Java MolfileCreator 2.0

  0  0  0  0  0  0              0 V3000
M  V30 BEGIN CTAB
M  V30 COUNTS 25 28 0 0 0
M  V30 BEGIN ATOM
M  V30 1 F 0.0 0.0 0.0 0
M  V30 2 C -0.0117 -1.4845 0.0 0
M  V30 3 C -1.3195 -2.215 0.0 0
M  V30 4 C 1.2724 -2.215 0.0 0
M  V30 5 N -2.757 -1.7437 0.0 0
M  V30 6 C -1.3313 -3.6995 0.0 0
M  V30 7 C 1.2606 -3.6995 0.0 0
M  V30 8 C -3.6524 -2.9455 0.0 0
M  V30 9 N -2.7687 -4.1472 0.0 0
M  V30 10 C -0.0471 -4.43 0.0 0
M  V30 11 C -5.1605 -2.9337 0.0 0
M  V30 12 C -5.9145 -4.2179 0.0 0
M  V30 13 C -5.9145 -1.6259 0.0 0
M  V30 14 C -7.4226 -4.2061 0.0 0
M  V30 15 C -7.4226 -1.6141 0.0 0
M  V30 16 C -8.1767 -2.8983 0.0 0
M  V30 17 N -9.6848 -2.8866 0.0 0
M  V30 18 C -10.4389 -1.5787 0.0 0
M  V30 19 O -9.7084 -0.2709 0.0 0
M  V30 20 C -11.947 -1.567 0.0 0
M  V30 21 N -12.7128 -0.2592 0.0 0
M  V30 22 N -12.1119 1.1192 0.0 0
M  V30 23 C -14.2091 -0.0942 0.0 0
M  V30 24 C -13.2312 2.1325 0.0 0
M  V30 25 N -14.5272 1.3785 0.0 0
M  V30 END ATOM
M  V30 BEGIN BOND
M  V30 1 1 1 2
M  V30 2 2 2 3
M  V30 3 1 2 4
M  V30 4 1 3 5
M  V30 5 1 3 6
M  V30 6 2 4 7
M  V30 7 2 5 8
M  V30 8 1 6 9
M  V30 9 2 6 10
M  V30 10 1 8 11
M  V30 11 2 11 12
M  V30 12 1 11 13
M  V30 13 1 12 14
M  V30 14 2 13 15
M  V30 15 2 14 16
M  V30 16 1 16 17
M  V30 17 1 17 18
M  V30 18 2 18 19
M  V30 19 1 18 20
M  V30 20 1 20 21
M  V30 21 1 21 22
M  V30 22 1 21 23
M  V30 23 2 22 24
M  V30 24 2 23 25
M  V30 25 1 7 10
M  V30 26 1 8 9
M  V30 27 1 15 16
M  V30 28 1 24 25
M  V30 END BOND
M  V30 END CTAB
M  END
>  <Structure No>
746

>  <Catalog ID>
Z1151470077

>  <MW (desalted)>
336.323

>  <ClogP>
2.126

>  <HBD>
2

>  <TPSA>
88.490

>  <RotBonds>
4

>  <Target>
DNA_pk

>  <fromRegid>


>  <Similarity>


$$$$
Compound 747
Actelion Java MolfileCreator 2.0

  0  0  0  0  0  0              0 V3000
M  V30 BEGIN CTAB
M  V30 COUNTS 25 27 0 0 0
M  V30 BEGIN ATOM
M  V30 1 Cl 0.0 0.0 0.0 0
M  V30 2 C 1.2945 -0.7363 0.0 0
M  V30 3 C 2.5891 0.0237 0.0 0
M  V30 4 C 1.2827 -2.2328 0.0 0
M  V30 5 C 3.8837 -0.7126 0.0 0
M  V30 6 C 2.5773 1.544 0.0 0
M  V30 7 C 2.5773 -2.9692 0.0 0
M  V30 8 C 3.8719 -2.2091 0.0 0
M  V30 9 F 2.5654 3.0642 0.0 0
M  V30 10 F 4.0738 1.5558 0.0 0
M  V30 11 F 1.057 1.5558 0.0 0
M  V30 12 S 5.1665 -2.9455 0.0 0
M  V30 13 C 6.4611 -2.1853 0.0 0 CFG=2
M  V30 14 C 7.7557 -2.9217 0.0 0
M  V30 15 C 6.4492 -0.6651 0.0 0
M  V30 16 N 9.0502 -2.1616 0.0 0
M  V30 17 N 7.7438 -4.4182 0.0 0
M  V30 18 C 10.3448 -2.8979 0.0 0
M  V30 19 C 9.0384 -5.1665 0.0 0
M  V30 20 C 10.333 -4.3945 0.0 0
M  V30 21 C 11.6394 -2.1378 0.0 0
M  V30 22 O 9.0265 -6.663 0.0 0
M  V30 23 C 11.6276 -5.1427 0.0 0
M  V30 24 C 12.934 -2.8742 0.0 0
M  V30 25 C 12.9222 -4.3826 0.0 0
M  V30 END ATOM
M  V30 BEGIN BOND
M  V30 1 1 1 2
M  V30 2 2 2 3
M  V30 3 1 2 4
M  V30 4 1 3 5
M  V30 5 1 3 6
M  V30 6 2 4 7
M  V30 7 2 5 8
M  V30 8 1 6 9
M  V30 9 1 6 10
M  V30 10 1 6 11
M  V30 11 1 8 12
M  V30 12 1 13 12 CFG=1
M  V30 13 1 13 14
M  V30 14 1 13 15
M  V30 15 2 14 16
M  V30 16 1 14 17
M  V30 17 1 16 18
M  V30 18 1 17 19
M  V30 19 2 18 20
M  V30 20 1 18 21
M  V30 21 2 19 22
M  V30 22 1 20 23
M  V30 23 2 21 24
M  V30 24 2 23 25
M  V30 25 1 7 8
M  V30 26 1 19 20
M  V30 27 1 24 25
M  V30 END BOND
M  V30 BEGIN COLLECTION
M  V30 MDLV30/STERAC1 ATOMS=(1 13)
M  V30 END COLLECTION
M  V30 END CTAB
M  END
>  <Structure No>
747

>  <Catalog ID>
Z17289122

>  <MW (desalted)>
384.803

>  <ClogP>
4.255

>  <HBD>
1

>  <TPSA>
41.460

>  <RotBonds>
4

>  <Target>
parp2

>  <fromRegid>


>  <Similarity>


$$$$
Compound 748
Actelion Java MolfileCreator 2.0

  0  0  0  0  0  0              0 V3000
M  V30 BEGIN CTAB
M  V30 COUNTS 23 24 0 0 0
M  V30 BEGIN ATOM
M  V30 1 O 0.0 0.0 0.0 0
M  V30 2 C -0.0117 1.5038 0.0 0
M  V30 3 N -1.3158 2.2558 0.0 0
M  V30 4 C 1.2688 2.2558 0.0 0
M  V30 5 C -1.3276 3.7596 0.0 0
M  V30 6 O 1.2571 3.7596 0.0 0
M  V30 7 C -0.0469 4.5116 0.0 0
M  V30 8 C -2.6317 4.5116 0.0 0
M  V30 9 C -0.0587 6.0154 0.0 0
M  V30 10 C -2.6435 6.0154 0.0 0
M  V30 11 C -1.3628 6.7674 0.0 0
M  V30 12 C -3.9476 6.7674 0.0 0 CFG=1
M  V30 13 N -5.2517 6.0389 0.0 0
M  V30 14 C -3.9594 8.2712 0.0 0
M  V30 15 C -6.5559 6.7909 0.0 0
M  V30 16 O -6.5676 8.2947 0.0 0
M  V30 17 N -7.86 6.0624 0.0 0
M  V30 18 C -9.1642 6.8144 0.0 0
M  V30 19 C -10.4683 6.0859 0.0 0
M  V30 20 C -11.7724 6.8379 0.0 0
M  V30 21 C -13.0766 6.1094 0.0 0
M  V30 22 O -14.3807 6.8614 0.0 0
M  V30 23 C -15.6848 6.1329 0.0 0
M  V30 END ATOM
M  V30 BEGIN BOND
M  V30 1 2 1 2
M  V30 2 1 2 3
M  V30 3 1 2 4
M  V30 4 1 3 5
M  V30 5 1 4 6
M  V30 6 2 5 7
M  V30 7 1 5 8
M  V30 8 1 7 9
M  V30 9 2 8 10
M  V30 10 2 9 11
M  V30 11 1 10 12
M  V30 12 1 12 13 CFG=1
M  V30 13 1 12 14
M  V30 14 1 13 15
M  V30 15 2 15 16
M  V30 16 1 15 17
M  V30 17 1 17 18
M  V30 18 1 18 19
M  V30 19 1 19 20
M  V30 20 1 20 21
M  V30 21 1 21 22
M  V30 22 1 22 23
M  V30 23 1 6 7
M  V30 24 1 10 11
M  V30 END BOND
M  V30 BEGIN COLLECTION
M  V30 MDLV30/STERAC1 ATOMS=(1 12)
M  V30 END COLLECTION
M  V30 END CTAB
M  END
>  <Structure No>
748

>  <Catalog ID>
Z437925620

>  <MW (desalted)>
321.372

>  <ClogP>
0.575

>  <HBD>
3

>  <TPSA>
88.690

>  <RotBonds>
7

>  <Target>
parp2

>  <fromRegid>


>  <Similarity>


$$$$
Compound 749
Actelion Java MolfileCreator 2.0

  0  0  0  0  0  0              0 V3000
M  V30 BEGIN CTAB
M  V30 COUNTS 24 26 0 0 0
M  V30 BEGIN ATOM
M  V30 1 S 0.0 0.0 0.0 0
M  V30 2 C 0.4487 -1.4172 0.0 0
M  V30 3 C 1.2046 0.8975 0.0 0
M  V30 4 N 1.9369 -1.4054 0.0 0
M  V30 5 N -0.4487 -2.6219 0.0 0
M  V30 6 C 2.4093 0.0236 0.0 0
M  V30 7 C 1.1928 2.4093 0.0 0
M  V30 8 C -1.9487 -2.4565 0.0 0
M  V30 9 C 2.4801 3.177 0.0 0
M  V30 10 O -2.5746 -1.0747 0.0 0
M  V30 11 C -2.8463 -3.6612 0.0 0
M  V30 12 C 3.7675 2.4329 0.0 0
M  V30 13 C 2.4683 4.6887 0.0 0
M  V30 14 C -4.3462 -3.4958 0.0 0
M  V30 15 C -2.2439 -5.0194 0.0 0
M  V30 16 C 5.0548 3.2006 0.0 0
M  V30 17 C 3.7557 5.4446 0.0 0
M  V30 18 C -5.2438 -4.7005 0.0 0
M  V30 19 C -3.1415 -6.2241 0.0 0
M  V30 20 C 5.043 4.7123 0.0 0
M  V30 21 C -6.7437 -4.5352 0.0 0
M  V30 22 C -4.6415 -6.0587 0.0 0
M  V30 23 F 6.3304 5.4682 0.0 0
M  V30 24 N -8.2437 -4.3698 0.0 0
M  V30 END ATOM
M  V30 BEGIN BOND
M  V30 1 1 1 2
M  V30 2 1 1 3
M  V30 3 2 2 4
M  V30 4 1 2 5
M  V30 5 2 3 6
M  V30 6 1 3 7
M  V30 7 1 5 8
M  V30 8 1 7 9
M  V30 9 2 8 10
M  V30 10 1 8 11
M  V30 11 2 9 12
M  V30 12 1 9 13
M  V30 13 2 11 14
M  V30 14 1 11 15
M  V30 15 1 12 16
M  V30 16 2 13 17
M  V30 17 1 14 18
M  V30 18 2 15 19
M  V30 19 2 16 20
M  V30 20 1 18 21
M  V30 21 2 18 22
M  V30 22 1 20 23
M  V30 23 3 21 24
M  V30 24 1 4 6
M  V30 25 1 17 20
M  V30 26 1 19 22
M  V30 END BOND
M  V30 END CTAB
M  END
>  <Structure No>
749

>  <Catalog ID>
Z89633553

>  <MW (desalted)>
337.371

>  <ClogP>
3.651

>  <HBD>
1

>  <TPSA>
65.780

>  <RotBonds>
4

>  <Target>
parp14

>  <fromRegid>


>  <Similarity>


$$$$
Compound 750
Actelion Java MolfileCreator 2.0

  0  0  0  0  0  0              0 V3000
M  V30 BEGIN CTAB
M  V30 COUNTS 20 21 0 0 0
M  V30 BEGIN ATOM
M  V30 1 S 0.0 0.0 0.0 0
M  V30 2 C 0.1418 1.5012 0.0 0
M  V30 3 C -1.4775 -0.2955 0.0 0
M  V30 4 N -1.2411 2.1277 0.0 0
M  V30 5 N 1.4302 2.2577 0.0 0
M  V30 6 C -2.2341 1.0165 0.0 0
M  V30 7 C -2.2341 -1.5839 0.0 0
M  V30 8 C 2.7187 1.5248 0.0 0
M  V30 9 C -3.7471 1.0283 0.0 0
M  V30 10 C -3.7471 -1.5721 0.0 0 CFG=2
M  V30 11 O 2.7069 0.0354 0.0 0
M  V30 12 C 4.0072 2.2813 0.0 0
M  V30 13 C -4.5036 -0.26 0.0 0
M  V30 14 C -4.5036 -2.8605 0.0 0
M  V30 15 C 5.2956 1.5485 0.0 0
M  V30 16 C -6.0167 -2.8487 0.0 0
M  V30 17 C 6.5841 2.305 0.0 0
M  V30 18 O 6.5722 3.818 0.0 0
M  V30 19 O 7.8725 1.5721 0.0 0
M  V30 20 C 9.161 2.3286 0.0 0
M  V30 END ATOM
M  V30 BEGIN BOND
M  V30 1 1 1 2
M  V30 2 1 1 3
M  V30 3 2 2 4
M  V30 4 1 2 5
M  V30 5 2 3 6
M  V30 6 1 3 7
M  V30 7 1 5 8
M  V30 8 1 6 9
M  V30 9 1 7 10
M  V30 10 2 8 11
M  V30 11 1 8 12
M  V30 12 1 9 13
M  V30 13 1 10 14 CFG=1
M  V30 14 1 12 15
M  V30 15 1 14 16
M  V30 16 1 15 17
M  V30 17 2 17 18
M  V30 18 1 17 19
M  V30 19 1 19 20
M  V30 20 1 4 6
M  V30 21 1 10 13
M  V30 END BOND
M  V30 BEGIN COLLECTION
M  V30 MDLV30/STERAC1 ATOMS=(1 10)
M  V30 END COLLECTION
M  V30 END CTAB
M  END
>  <Structure No>
750

>  <Catalog ID>
Z512860604

>  <MW (desalted)>
296.385

>  <ClogP>
3.275

>  <HBD>
1

>  <TPSA>
68.290

>  <RotBonds>
6

>  <Target>
Poly [ADP-ribose] polymerase-1

>  <fromRegid>
CHEMBL448447

>  <Similarity>
0.95

$$$$
Compound 751
Actelion Java MolfileCreator 2.0

  0  0  0  0  0  0              0 V3000
M  V30 BEGIN CTAB
M  V30 COUNTS 29 32 0 0 0
M  V30 BEGIN ATOM
M  V30 1 O 0.0 0.0 0.0 0
M  V30 2 C -0.0117 1.5069 0.0 0
M  V30 3 N -1.3185 2.2721 0.0 0
M  V30 4 C 1.2714 2.2721 0.0 0
M  V30 5 C -1.3303 3.779 0.0 0
M  V30 6 C 1.2596 3.779 0.0 0
M  V30 7 C 2.5546 1.5304 0.0 0
M  V30 8 N -0.047 4.5325 0.0 0
M  V30 9 C -2.637 4.5325 0.0 0
M  V30 10 C 2.5429 4.5325 0.0 0
M  V30 11 C 3.8379 2.2956 0.0 0
M  V30 12 O -2.6488 6.0394 0.0 0
M  V30 13 N -3.9438 3.8026 0.0 0
M  V30 14 C 3.8261 3.8026 0.0 0
M  V30 15 C -5.2506 4.556 0.0 0
M  V30 16 C -6.5574 3.8261 0.0 0
M  V30 17 C -6.5692 2.3427 0.0 0
M  V30 18 C -7.8642 4.5796 0.0 0
M  V30 19 C -7.8759 1.601 0.0 0
M  V30 20 C -9.1709 3.8496 0.0 0
M  V30 21 C -9.1827 2.3663 0.0 0
M  V30 22 C -10.4895 1.6246 0.0 0
M  V30 23 O -11.7963 2.3898 0.0 0
M  V30 24 C -13.103 1.6481 0.0 0
M  V30 25 C -13.1148 0.1648 0.0 0
M  V30 26 C -14.4098 2.4134 0.0 0
M  V30 27 C -14.4216 -0.5768 0.0 0
M  V30 28 C -15.7166 1.6717 0.0 0
M  V30 29 O -15.7284 0.1883 0.0 0
M  V30 END ATOM
M  V30 BEGIN BOND
M  V30 1 2 1 2
M  V30 2 1 2 3
M  V30 3 1 2 4
M  V30 4 1 3 5
M  V30 5 2 4 6
M  V30 6 1 4 7
M  V30 7 2 5 8
M  V30 8 1 5 9
M  V30 9 1 6 10
M  V30 10 2 7 11
M  V30 11 2 9 12
M  V30 12 1 9 13
M  V30 13 2 10 14
M  V30 14 1 13 15
M  V30 15 1 15 16
M  V30 16 2 16 17
M  V30 17 1 16 18
M  V30 18 1 17 19
M  V30 19 2 18 20
M  V30 20 2 19 21
M  V30 21 1 21 22
M  V30 22 1 22 23
M  V30 23 1 23 24
M  V30 24 1 24 25
M  V30 25 1 24 26
M  V30 26 1 25 27
M  V30 27 1 26 28
M  V30 28 1 27 29
M  V30 29 1 6 8
M  V30 30 1 11 14
M  V30 31 1 20 21
M  V30 32 1 28 29
M  V30 END BOND
M  V30 END CTAB
M  END
>  <Structure No>
751

>  <Catalog ID>
Z1501729919

>  <MW (desalted)>
393.436

>  <ClogP>
1.494

>  <HBD>
2

>  <TPSA>
89.020

>  <RotBonds>
6

>  <Target>
Tankyrase1

>  <fromRegid>


>  <Similarity>


$$$$
Compound 752
Actelion Java MolfileCreator 2.0

  0  0  0  0  0  0              0 V3000
M  V30 BEGIN CTAB
M  V30 COUNTS 22 23 0 0 0
M  V30 BEGIN ATOM
M  V30 1 S 0.0 0.0 0.0 0
M  V30 2 O -0.7713 -1.2935 0.0 0
M  V30 3 O 0.7357 1.3172 0.0 0
M  V30 4 N 1.2935 -0.7357 0.0 0
M  V30 5 C -1.3172 0.7594 0.0 0
M  V30 6 C 2.587 0.0237 0.0 0
M  V30 7 C 3.8805 -0.712 0.0 0
M  V30 8 C 5.174 0.0474 0.0 0
M  V30 9 N 6.4675 -0.6882 0.0 0
M  V30 10 C 7.761 0.0712 0.0 0
M  V30 11 O 7.7492 1.5901 0.0 0
M  V30 12 N 9.0545 -0.6645 0.0 0
M  V30 13 C 10.348 0.0949 0.0 0 CFG=2
M  V30 14 C 11.6416 -0.6408 0.0 0
M  V30 15 C 10.3362 1.6139 0.0 0
M  V30 16 C 12.9351 0.1186 0.0 0
M  V30 17 C 11.6297 -2.136 0.0 0
M  V30 18 C 11.6297 2.3852 0.0 0
M  V30 19 C 14.2286 -0.617 0.0 0
M  V30 20 C 12.9232 1.6376 0.0 0
M  V30 21 C 12.9232 -2.8718 0.0 0
M  V30 22 C 14.2167 -2.1123 0.0 0
M  V30 END ATOM
M  V30 BEGIN BOND
M  V30 1 2 1 2
M  V30 2 2 1 3
M  V30 3 1 1 4
M  V30 4 1 1 5
M  V30 5 1 4 6
M  V30 6 1 6 7
M  V30 7 1 7 8
M  V30 8 1 8 9
M  V30 9 1 9 10
M  V30 10 2 10 11
M  V30 11 1 10 12
M  V30 12 1 13 12 CFG=1
M  V30 13 1 13 14
M  V30 14 1 13 15
M  V30 15 2 14 16
M  V30 16 1 14 17
M  V30 17 1 15 18
M  V30 18 1 16 19
M  V30 19 1 16 20
M  V30 20 2 17 21
M  V30 21 2 19 22
M  V30 22 1 18 20
M  V30 23 1 21 22
M  V30 END BOND
M  V30 BEGIN COLLECTION
M  V30 MDLV30/STERAC1 ATOMS=(1 13)
M  V30 END COLLECTION
M  V30 END CTAB
M  END
>  <Structure No>
752

>  <Catalog ID>
Z336689022

>  <MW (desalted)>
325.426

>  <ClogP>
2.056

>  <HBD>
3

>  <TPSA>
87.300

>  <RotBonds>
5

>  <Target>
ATM

>  <fromRegid>


>  <Similarity>


$$$$
Compound 753
Actelion Java MolfileCreator 2.0

  0  0  0  0  0  0              0 V3000
M  V30 BEGIN CTAB
M  V30 COUNTS 24 25 0 0 0
M  V30 BEGIN ATOM
M  V30 1 O 0.0 0.0 0.0 0
M  V30 2 C -0.0118 -1.4892 0.0 0
M  V30 3 N 1.2764 -2.222 0.0 0
M  V30 4 N -1.3237 -2.222 0.0 0
M  V30 5 C 2.5647 -1.4655 0.0 0
M  V30 6 C -2.6356 -1.4655 0.0 0
M  V30 7 C 3.853 -2.1983 0.0 0
M  V30 8 C 2.5529 0.0472 0.0 0
M  V30 9 C -3.9476 -2.1983 0.0 0
M  V30 10 N 3.8412 -3.6875 0.0 0
M  V30 11 C 5.1413 -1.4419 0.0 0
M  V30 12 C 3.8412 0.8037 0.0 0
M  V30 13 C -5.2595 -1.4419 0.0 0
M  V30 14 N 5.0468 -4.5622 0.0 0
M  V30 15 C 2.612 -4.5622 0.0 0
M  V30 16 C 5.1295 0.0709 0.0 0
M  V30 17 N -6.5714 -2.1747 0.0 0
M  V30 18 C 4.574 -5.9805 0.0 0
M  V30 19 C 3.0611 -5.9805 0.0 0
M  V30 20 C 1.1701 -4.0894 0.0 0
M  V30 21 C -7.8834 -1.4183 0.0 0
M  V30 22 C 5.4486 -7.186 0.0 0
M  V30 23 O -7.8952 0.0945 0.0 0
M  V30 24 C -9.1953 -2.151 0.0 0
M  V30 END ATOM
M  V30 BEGIN BOND
M  V30 1 2 1 2
M  V30 2 1 2 3
M  V30 3 1 2 4
M  V30 4 1 3 5
M  V30 5 1 4 6
M  V30 6 2 5 7
M  V30 7 1 5 8
M  V30 8 1 6 9
M  V30 9 1 7 10
M  V30 10 1 7 11
M  V30 11 2 8 12
M  V30 12 1 9 13
M  V30 13 1 10 14
M  V30 14 1 10 15
M  V30 15 2 11 16
M  V30 16 1 13 17
M  V30 17 2 14 18
M  V30 18 2 15 19
M  V30 19 1 15 20
M  V30 20 1 17 21
M  V30 21 1 18 22
M  V30 22 2 21 23
M  V30 23 1 21 24
M  V30 24 1 12 16
M  V30 25 1 18 19
M  V30 END BOND
M  V30 END CTAB
M  END
>  <Structure No>
753

>  <Catalog ID>
Z413301062

>  <MW (desalted)>
329.397

>  <ClogP>
1.748

>  <HBD>
3

>  <TPSA>
88.050

>  <RotBonds>
6

>  <Target>
ATM

>  <fromRegid>


>  <Similarity>


$$$$
Compound 754
Actelion Java MolfileCreator 2.0

  0  0  0  0  0  0              0 V3000
M  V30 BEGIN CTAB
M  V30 COUNTS 24 26 0 0 0
M  V30 BEGIN ATOM
M  V30 1 S 0.0 0.0 0.0 0
M  V30 2 O -0.7721 -1.2948 0.0 0
M  V30 3 O 0.7365 1.3186 0.0 0
M  V30 4 C 1.2948 -0.7484 0.0 0
M  V30 5 C -1.3186 0.7602 0.0 0
M  V30 6 N 1.2829 -2.2452 0.0 0
M  V30 7 C 2.5897 0.0118 0.0 0
M  V30 8 C 2.5778 -2.9936 0.0 0
M  V30 9 C 3.8846 -0.7365 0.0 0
M  V30 10 C 3.8727 -2.2214 0.0 0
M  V30 11 N 5.1676 -2.9699 0.0 0
M  V30 12 C 6.4625 -2.1977 0.0 0
M  V30 13 O 6.4506 -0.6771 0.0 0
M  V30 14 N 7.7573 -2.9461 0.0 0
M  V30 15 C 9.0522 -2.1739 0.0 0
M  V30 16 C 10.3471 -2.9223 0.0 0
M  V30 17 C 10.3352 -4.4192 0.0 0
M  V30 18 C 11.642 -2.1502 0.0 0
M  V30 19 C 11.6301 -5.1557 0.0 0
M  V30 20 C 12.9369 -2.8986 0.0 0
M  V30 21 O 11.9271 -6.6169 0.0 0
M  V30 22 C 12.925 -4.3954 0.0 0
M  V30 23 C 13.412 -6.7595 0.0 0
M  V30 24 O 14.0298 -5.3933 0.0 0
M  V30 END ATOM
M  V30 BEGIN BOND
M  V30 1 2 1 2
M  V30 2 2 1 3
M  V30 3 1 1 4
M  V30 4 1 1 5
M  V30 5 2 4 6
M  V30 6 1 4 7
M  V30 7 1 6 8
M  V30 8 2 7 9
M  V30 9 2 8 10
M  V30 10 1 10 11
M  V30 11 1 11 12
M  V30 12 2 12 13
M  V30 13 1 12 14
M  V30 14 1 14 15
M  V30 15 1 15 16
M  V30 16 2 16 17
M  V30 17 1 16 18
M  V30 18 1 17 19
M  V30 19 2 18 20
M  V30 20 1 19 21
M  V30 21 2 19 22
M  V30 22 1 21 23
M  V30 23 1 22 24
M  V30 24 1 9 10
M  V30 25 1 20 22
M  V30 26 1 23 24
M  V30 END BOND
M  V30 END CTAB
M  END
>  <Structure No>
754

>  <Catalog ID>
Z435181810

>  <MW (desalted)>
349.362

>  <ClogP>
2.201

>  <HBD>
2

>  <TPSA>
106.620

>  <RotBonds>
4

>  <Target>
DNA_pk

>  <fromRegid>


>  <Similarity>


$$$$
Compound 755
Actelion Java MolfileCreator 2.0

  0  0  0  0  0  0              0 V3000
M  V30 BEGIN CTAB
M  V30 COUNTS 25 28 0 0 0
M  V30 BEGIN ATOM
M  V30 1 O 0.0 0.0 0.0 0
M  V30 2 C 1.2895 0.7689 0.0 0
M  V30 3 N 1.2777 2.2833 0.0 0
M  V30 4 C 2.579 0.0236 0.0 0
M  V30 5 C 2.5672 3.0404 0.0 0
M  V30 6 C 3.8686 0.7926 0.0 0
M  V30 7 C 2.5672 -1.4669 0.0 0
M  V30 8 N 3.8567 2.3069 0.0 0
M  V30 9 C 2.5554 4.5547 0.0 0
M  V30 10 C 5.1581 0.0473 0.0 0
M  V30 11 C 3.8567 -2.2004 0.0 0
M  V30 12 N 3.8449 5.3237 0.0 0
M  V30 13 C 5.1463 -1.4433 0.0 0
M  V30 14 C 3.8331 6.8381 0.0 0
M  V30 15 C 5.1344 4.5784 0.0 0
M  V30 16 N 2.5199 7.5952 0.0 0
M  V30 17 C 5.1226 7.5952 0.0 0
M  V30 18 C 2.508 9.1095 0.0 0
M  V30 19 C 5.1108 9.1095 0.0 0
M  V30 20 C 6.4122 6.8499 0.0 0
M  V30 21 N 3.7976 9.8667 0.0 0
M  V30 22 C 6.4003 9.8667 0.0 0
M  V30 23 N 7.7017 7.6071 0.0 0
M  V30 24 C 7.6899 9.1332 0.0 0
M  V30 25 C 8.9912 6.8617 0.0 0
M  V30 END ATOM
M  V30 BEGIN BOND
M  V30 1 2 1 2
M  V30 2 1 2 3
M  V30 3 1 2 4
M  V30 4 1 3 5
M  V30 5 2 4 6
M  V30 6 1 4 7
M  V30 7 2 5 8
M  V30 8 1 5 9
M  V30 9 1 6 10
M  V30 10 2 7 11
M  V30 11 1 9 12
M  V30 12 2 10 13
M  V30 13 1 12 14
M  V30 14 1 12 15
M  V30 15 2 14 16
M  V30 16 1 14 17
M  V30 17 1 16 18
M  V30 18 2 17 19
M  V30 19 1 17 20
M  V30 20 2 18 21
M  V30 21 1 19 22
M  V30 22 1 20 23
M  V30 23 1 22 24
M  V30 24 1 23 25
M  V30 25 1 6 8
M  V30 26 1 11 13
M  V30 27 1 19 21
M  V30 28 1 23 24
M  V30 END BOND
M  V30 END CTAB
M  END
>  <Structure No>
755

>  <Catalog ID>
Z989211876

>  <MW (desalted)>
336.391

>  <ClogP>
0.424

>  <HBD>
1

>  <TPSA>
73.720

>  <RotBonds>
3

>  <Target>
parp15

>  <fromRegid>


>  <Similarity>


$$$$
Compound 756
Actelion Java MolfileCreator 2.0

  0  0  0  0  0  0              0 V3000
M  V30 BEGIN CTAB
M  V30 COUNTS 20 22 0 0 0
M  V30 BEGIN ATOM
M  V30 1 O 0.0 0.0 0.0 0
M  V30 2 C 1.285 -0.7427 0.0 0
M  V30 3 N 1.2732 -2.2282 0.0 0
M  V30 4 N 2.5701 0.0117 0.0 0
M  V30 5 C -0.0353 -2.9592 0.0 0
M  V30 6 C 2.5583 1.5208 0.0 0
M  V30 7 C -1.344 -2.2046 0.0 0
M  V30 8 C -0.0471 -4.4447 0.0 0
M  V30 9 C 3.8434 2.2754 0.0 0
M  V30 10 C 1.2497 2.2754 0.0 0
M  V30 11 C -2.6526 -2.9356 0.0 0
M  V30 12 C -1.3558 -5.1756 0.0 0
M  V30 13 C 3.8316 3.7845 0.0 0
M  V30 14 C 1.2379 3.7845 0.0 0
M  V30 15 C -2.6644 -4.4211 0.0 0
M  V30 16 C -4.091 -2.464 0.0 0
M  V30 17 C 2.523 4.539 0.0 0
M  V30 18 O -4.1028 -4.8691 0.0 0
M  V30 19 C -4.987 -3.6666 0.0 0
M  V30 20 O 2.5112 6.0481 0.0 0
M  V30 END ATOM
M  V30 BEGIN BOND
M  V30 1 2 1 2
M  V30 2 1 2 3
M  V30 3 1 2 4
M  V30 4 1 3 5
M  V30 5 1 4 6
M  V30 6 2 5 7
M  V30 7 1 5 8
M  V30 8 1 6 9
M  V30 9 1 6 10
M  V30 10 1 7 11
M  V30 11 2 8 12
M  V30 12 1 9 13
M  V30 13 1 10 14
M  V30 14 2 11 15
M  V30 15 1 11 16
M  V30 16 1 13 17
M  V30 17 1 15 18
M  V30 18 1 16 19
M  V30 19 1 17 20
M  V30 20 1 12 15
M  V30 21 1 14 17
M  V30 22 1 18 19
M  V30 END BOND
M  V30 END CTAB
M  END
>  <Structure No>
756

>  <Catalog ID>
Z413791288

>  <MW (desalted)>
276.331

>  <ClogP>
1.283

>  <HBD>
3

>  <TPSA>
70.590

>  <RotBonds>
2

>  <Target>
ATM

>  <fromRegid>


>  <Similarity>


$$$$
Compound 757
Actelion Java MolfileCreator 2.0

  0  0  0  0  0  0              0 V3000
M  V30 BEGIN CTAB
M  V30 COUNTS 23 25 0 0 0
M  V30 BEGIN ATOM
M  V30 1 S 0.0 0.0 0.0 0
M  V30 2 C -0.1649 1.4965 0.0 0
M  V30 3 C 1.4494 -0.2945 0.0 0
M  V30 4 N 1.1901 2.121 0.0 0
M  V30 5 N -1.4729 2.2507 0.0 0
M  V30 6 C 2.1917 1.0134 0.0 0
M  V30 7 C 2.1917 -1.579 0.0 0
M  V30 8 C -2.7809 1.5201 0.0 0
M  V30 9 C 3.6765 1.0251 0.0 0
M  V30 10 C 3.6765 -1.5672 0.0 0
M  V30 11 C -4.0889 2.2742 0.0 0
M  V30 12 C 4.4189 -0.2592 0.0 0
M  V30 13 N -5.3969 1.5436 0.0 0
M  V30 14 C -6.7049 2.2978 0.0 0
M  V30 15 O -6.7167 3.8061 0.0 0
M  V30 16 N -8.0129 1.5672 0.0 0
M  V30 17 C -9.321 2.3214 0.0 0
M  V30 18 C -9.3327 3.8297 0.0 0
M  V30 19 C -10.629 1.5908 0.0 0
M  V30 20 C -10.6407 4.5839 0.0 0
M  V30 21 C -11.937 2.3449 0.0 0
M  V30 22 C -11.9487 3.8533 0.0 0
M  V30 23 O -13.2567 4.6074 0.0 0
M  V30 END ATOM
M  V30 BEGIN BOND
M  V30 1 1 1 2
M  V30 2 1 1 3
M  V30 3 2 2 4
M  V30 4 1 2 5
M  V30 5 2 3 6
M  V30 6 1 3 7
M  V30 7 1 5 8
M  V30 8 1 6 9
M  V30 9 2 7 10
M  V30 10 1 8 11
M  V30 11 2 9 12
M  V30 12 1 11 13
M  V30 13 1 13 14
M  V30 14 2 14 15
M  V30 15 1 14 16
M  V30 16 1 16 17
M  V30 17 1 17 18
M  V30 18 1 17 19
M  V30 19 1 18 20
M  V30 20 1 19 21
M  V30 21 1 20 22
M  V30 22 1 22 23
M  V30 23 1 4 6
M  V30 24 1 10 12
M  V30 25 1 21 22
M  V30 END BOND
M  V30 END CTAB
M  END
>  <Structure No>
757

>  <Catalog ID>
Z446561012

>  <MW (desalted)>
334.436

>  <ClogP>
2.163

>  <HBD>
4

>  <TPSA>
86.280

>  <RotBonds>
5

>  <Target>
ATM

>  <fromRegid>


>  <Similarity>


$$$$
Compound 758
Actelion Java MolfileCreator 2.0

  0  0  0  0  0  0              0 V3000
M  V30 BEGIN CTAB
M  V30 COUNTS 25 27 0 0 0
M  V30 BEGIN ATOM
M  V30 1 O 0.0 0.0 0.0 0
M  V30 2 C -0.0118 -1.4962 0.0 0
M  V30 3 N 1.2824 -2.2443 0.0 0
M  V30 4 C -1.3299 -2.2443 0.0 0
M  V30 5 C 1.2706 -3.7406 0.0 0
M  V30 6 C -1.3418 -3.7406 0.0 0
M  V30 7 C -2.6481 -1.4843 0.0 0
M  V30 8 N -0.0474 -4.4768 0.0 0
M  V30 9 C 2.5649 -4.4768 0.0 0
M  V30 10 C -2.6599 -4.4768 0.0 0
M  V30 11 C -3.9662 -2.2324 0.0 0
M  V30 12 N 3.8593 -3.7168 0.0 0
M  V30 13 C -3.9781 -3.7168 0.0 0
M  V30 14 C 5.1537 -4.4531 0.0 0
M  V30 15 C 3.8474 -2.1968 0.0 0
M  V30 16 O 5.1418 -5.9493 0.0 0
M  V30 17 N 6.4481 -3.6931 0.0 0
M  V30 18 C 5.1418 -1.4368 0.0 0
M  V30 19 C 7.7424 -4.4293 0.0 0
M  V30 20 C 9.0368 -3.6693 0.0 0
M  V30 21 C 7.7306 -5.9256 0.0 0
M  V30 22 C 10.3312 -4.4056 0.0 0
M  V30 23 C 9.0249 -6.6618 0.0 0
M  V30 24 C 10.3193 -5.9018 0.0 0
M  V30 25 O 11.6137 -6.6381 0.0 0
M  V30 END ATOM
M  V30 BEGIN BOND
M  V30 1 2 1 2
M  V30 2 1 2 3
M  V30 3 1 2 4
M  V30 4 1 3 5
M  V30 5 2 4 6
M  V30 6 1 4 7
M  V30 7 2 5 8
M  V30 8 1 5 9
M  V30 9 1 6 10
M  V30 10 2 7 11
M  V30 11 1 9 12
M  V30 12 2 10 13
M  V30 13 1 12 14
M  V30 14 1 12 15
M  V30 15 2 14 16
M  V30 16 1 14 17
M  V30 17 1 15 18
M  V30 18 1 17 19
M  V30 19 1 19 20
M  V30 20 1 19 21
M  V30 21 1 20 22
M  V30 22 1 21 23
M  V30 23 1 22 24
M  V30 24 1 24 25
M  V30 25 1 6 8
M  V30 26 1 11 13
M  V30 27 1 23 24
M  V30 END BOND
M  V30 END CTAB
M  END
>  <Structure No>
758

>  <Catalog ID>
Z446558906

>  <MW (desalted)>
344.408

>  <ClogP>
-0.328

>  <HBD>
3

>  <TPSA>
94.030

>  <RotBonds>
4

>  <Target>
Tankyrase1

>  <fromRegid>


>  <Similarity>


$$$$
Compound 759
Actelion Java MolfileCreator 2.0

  0  0  0  0  0  0              0 V3000
M  V30 BEGIN CTAB
M  V30 COUNTS 28 31 0 0 0
M  V30 BEGIN ATOM
M  V30 1 O 0.0 0.0 0.0 0
M  V30 2 C -0.0117 1.5072 0.0 0
M  V30 3 N -1.3188 2.2609 0.0 0
M  V30 4 C 1.2717 2.2609 0.0 0
M  V30 5 C -1.3306 3.7681 0.0 0
M  V30 6 C 1.2599 3.7681 0.0 0
M  V30 7 C 2.5553 1.519 0.0 0
M  V30 8 N -0.0471 4.5218 0.0 0
M  V30 9 C -2.6377 4.5218 0.0 0
M  V30 10 C 2.5435 4.5218 0.0 0
M  V30 11 C 3.8388 2.2726 0.0 0
M  V30 12 C -3.9448 3.7917 0.0 0
M  V30 13 C 3.827 3.7917 0.0 0
M  V30 14 C -5.2519 4.5453 0.0 0
M  V30 15 O -5.2636 6.0526 0.0 0
M  V30 16 N -6.559 3.8152 0.0 0
M  V30 17 C -7.8661 4.5689 0.0 0 CFG=2
M  V30 18 C -7.8778 6.0762 0.0 0
M  V30 19 C -9.1731 3.8388 0.0 0
M  V30 20 C -9.1849 6.8298 0.0 0
M  V30 21 C -6.5943 6.8298 0.0 0
M  V30 22 C -10.4802 4.5924 0.0 0
M  V30 23 C -10.1505 2.7083 0.0 0
M  V30 24 C -8.2193 2.7083 0.0 0
M  V30 25 C -9.1967 8.3371 0.0 0
M  V30 26 C -10.492 6.0997 0.0 0
M  V30 27 C -6.6061 8.3371 0.0 0
M  V30 28 C -7.9132 9.0907 0.0 0
M  V30 END ATOM
M  V30 BEGIN BOND
M  V30 1 2 1 2
M  V30 2 1 2 3
M  V30 3 1 2 4
M  V30 4 1 3 5
M  V30 5 2 4 6
M  V30 6 1 4 7
M  V30 7 2 5 8
M  V30 8 1 5 9
M  V30 9 1 6 10
M  V30 10 2 7 11
M  V30 11 1 9 12
M  V30 12 2 10 13
M  V30 13 1 12 14
M  V30 14 2 14 15
M  V30 15 1 14 16
M  V30 16 1 17 16 CFG=1
M  V30 17 1 17 18
M  V30 18 1 17 19
M  V30 19 2 18 20
M  V30 20 1 18 21
M  V30 21 1 19 22
M  V30 22 1 19 23
M  V30 23 1 19 24
M  V30 24 1 20 25
M  V30 25 1 20 26
M  V30 26 2 21 27
M  V30 27 2 25 28
M  V30 28 1 6 8
M  V30 29 1 11 13
M  V30 30 1 22 26
M  V30 31 1 27 28
M  V30 END BOND
M  V30 BEGIN COLLECTION
M  V30 MDLV30/STERAC1 ATOMS=(1 17)
M  V30 END COLLECTION
M  V30 END CTAB
M  END
>  <Structure No>
759

>  <Catalog ID>
Z1500828562

>  <MW (desalted)>
375.464

>  <ClogP>
3.221

>  <HBD>
2

>  <TPSA>
70.560

>  <RotBonds>
4

>  <Target>
parp15

>  <fromRegid>


>  <Similarity>


$$$$
Compound 760
Actelion Java MolfileCreator 2.0

  0  0  0  0  0  0              0 V3000
M  V30 BEGIN CTAB
M  V30 COUNTS 25 27 0 0 0
M  V30 BEGIN ATOM
M  V30 1 S 0.0 0.0 0.0 0
M  V30 2 O -0.7609 -1.2959 0.0 0
M  V30 3 O 0.7371 1.3196 0.0 0
M  V30 4 N -1.3196 0.7609 0.0 0
M  V30 5 C 1.2959 -0.7371 0.0 0
M  V30 6 C 2.5918 0.0237 0.0 0
M  V30 7 C 1.284 -2.2351 0.0 0
M  V30 8 C 3.8877 -0.7133 0.0 0
M  V30 9 C 2.5799 -2.9841 0.0 0
M  V30 10 C 3.8758 -2.2113 0.0 0
M  V30 11 N 5.1717 -2.9603 0.0 0
M  V30 12 C 6.4676 -2.1994 0.0 0
M  V30 13 O 6.4557 -0.6776 0.0 0
M  V30 14 N 7.7635 -2.9484 0.0 0
M  V30 15 C 9.0594 -2.1875 0.0 0
M  V30 16 C 10.3553 -2.9366 0.0 0
M  V30 17 C 10.3434 -4.4346 0.0 0
M  V30 18 C 11.6512 -2.1757 0.0 0
M  V30 19 C 11.6394 -5.1717 0.0 0
M  V30 20 C 12.9471 -2.9247 0.0 0
M  V30 21 O 11.6275 -6.6697 0.0 0
M  V30 22 C 12.9353 -4.4108 0.0 0
M  V30 23 C 12.9234 -7.4068 0.0 0
M  V30 24 O 14.2312 -5.1479 0.0 0
M  V30 25 C 14.2193 -6.6459 0.0 0
M  V30 END ATOM
M  V30 BEGIN BOND
M  V30 1 2 1 2
M  V30 2 2 1 3
M  V30 3 1 1 4
M  V30 4 1 1 5
M  V30 5 2 5 6
M  V30 6 1 5 7
M  V30 7 1 6 8
M  V30 8 2 7 9
M  V30 9 2 8 10
M  V30 10 1 10 11
M  V30 11 1 11 12
M  V30 12 2 12 13
M  V30 13 1 12 14
M  V30 14 1 14 15
M  V30 15 1 15 16
M  V30 16 2 16 17
M  V30 17 1 16 18
M  V30 18 1 17 19
M  V30 19 2 18 20
M  V30 20 1 19 21
M  V30 21 2 19 22
M  V30 22 1 21 23
M  V30 23 1 22 24
M  V30 24 1 23 25
M  V30 25 1 9 10
M  V30 26 1 20 22
M  V30 27 1 24 25
M  V30 END BOND
M  V30 END CTAB
M  END
>  <Structure No>
760

>  <Catalog ID>
Z124837012

>  <MW (desalted)>
363.388

>  <ClogP>
1.334

>  <HBD>
3

>  <TPSA>
119.750

>  <RotBonds>
4

>  <Target>
CHK2

>  <fromRegid>


>  <Similarity>


$$$$
Compound 761
Actelion Java MolfileCreator 2.0

  0  0  0  0  0  0              0 V3000
M  V30 BEGIN CTAB
M  V30 COUNTS 23 23 0 0 0
M  V30 BEGIN ATOM
M  V30 1 O 0.0 0.0 0.0 0
M  V30 2 C -0.7559 -1.2875 0.0 0
M  V30 3 N -0.0236 -2.575 0.0 0
M  V30 4 N -2.2678 -1.2756 0.0 0
M  V30 5 C 1.4646 -2.5631 0.0 0
M  V30 6 C -3.0238 0.0354 0.0 0 CFG=2
M  V30 7 C 2.197 -3.8506 0.0 0
M  V30 8 C 2.197 -1.252 0.0 0
M  V30 9 C -4.5357 0.0472 0.0 0
M  V30 10 C -2.2915 1.3465 0.0 0
M  V30 11 O 3.6853 -3.8388 0.0 0
M  V30 12 N 1.441 -5.1381 0.0 0
M  V30 13 O 1.441 0.059 0.0 0
M  V30 14 N 3.6853 -1.2402 0.0 0
M  V30 15 C -5.2917 1.3583 0.0 0
M  V30 16 C -5.2917 -1.2402 0.0 0
M  V30 17 O -4.5594 2.6694 0.0 0
M  V30 18 C -6.8036 1.3701 0.0 0
M  V30 19 C -6.8036 -1.2284 0.0 0
M  V30 20 C -3.0711 2.6813 0.0 0
M  V30 21 C -7.5596 0.0826 0.0 0
M  V30 22 O -7.5596 -2.5159 0.0 0
M  V30 23 C -9.0715 -2.5041 0.0 0
M  V30 END ATOM
M  V30 BEGIN BOND
M  V30 1 2 1 2
M  V30 2 1 2 3
M  V30 3 1 2 4
M  V30 4 1 3 5
M  V30 5 1 6 4 CFG=3
M  V30 6 1 5 7
M  V30 7 1 5 8
M  V30 8 1 6 9
M  V30 9 1 6 10
M  V30 10 2 7 11
M  V30 11 1 7 12
M  V30 12 2 8 13
M  V30 13 1 8 14
M  V30 14 2 9 15
M  V30 15 1 9 16
M  V30 16 1 15 17
M  V30 17 1 15 18
M  V30 18 2 16 19
M  V30 19 1 17 20
M  V30 20 2 18 21
M  V30 21 1 19 22
M  V30 22 1 22 23
M  V30 23 1 19 21
M  V30 END BOND
M  V30 BEGIN COLLECTION
M  V30 MDLV30/STERAC1 ATOMS=(1 6)
M  V30 END COLLECTION
M  V30 END CTAB
M  END
>  <Structure No>
761

>  <Catalog ID>
Z434468634

>  <MW (desalted)>
324.332

>  <ClogP>
-0.816

>  <HBD>
4

>  <TPSA>
145.770

>  <RotBonds>
7

>  <Target>
ATM

>  <fromRegid>


>  <Similarity>


$$$$
Compound 762
Actelion Java MolfileCreator 2.0

  0  0  0  0  0  0              0 V3000
M  V30 BEGIN CTAB
M  V30 COUNTS 25 27 0 0 0
M  V30 BEGIN ATOM
M  V30 1 S 0.0 0.0 0.0 0
M  V30 2 O -0.759 -1.2927 0.0 0
M  V30 3 O 0.7471 1.3164 0.0 0
M  V30 4 N 1.2927 -0.7353 0.0 0
M  V30 5 C -1.3164 0.7708 0.0 0
M  V30 6 C 2.5854 0.0237 0.0 0
M  V30 7 C 1.2808 -2.2296 0.0 0
M  V30 8 C 3.8781 -0.7115 0.0 0
M  V30 9 C 2.5735 -2.9649 0.0 0
M  V30 10 C 3.8662 -2.2059 0.0 0
M  V30 11 N 5.159 -2.9412 0.0 0
M  V30 12 C 6.4517 -2.1821 0.0 0
M  V30 13 O 6.4398 -0.6641 0.0 0
M  V30 14 N 7.7444 -2.9175 0.0 0
M  V30 15 C 9.0371 -2.1584 0.0 0
M  V30 16 C 10.3298 -2.8937 0.0 0
M  V30 17 C 9.0252 -0.6404 0.0 0
M  V30 18 N 10.318 -4.3881 0.0 0
M  V30 19 C 11.6225 -2.1347 0.0 0
M  V30 20 C 10.318 0.1185 0.0 0
M  V30 21 N 9.0845 -5.2657 0.0 0
M  V30 22 C 11.5277 -5.2657 0.0 0
M  V30 23 C 11.6107 -0.6167 0.0 0
M  V30 24 C 9.5352 -6.6889 0.0 0
M  V30 25 C 11.0533 -6.6889 0.0 0
M  V30 END ATOM
M  V30 BEGIN BOND
M  V30 1 2 1 2
M  V30 2 2 1 3
M  V30 3 1 1 4
M  V30 4 1 1 5
M  V30 5 1 4 6
M  V30 6 1 4 7
M  V30 7 1 6 8
M  V30 8 1 7 9
M  V30 9 1 8 10
M  V30 10 1 10 11
M  V30 11 1 11 12
M  V30 12 2 12 13
M  V30 13 1 12 14
M  V30 14 1 14 15
M  V30 15 2 15 16
M  V30 16 1 15 17
M  V30 17 1 16 18
M  V30 18 1 16 19
M  V30 19 2 17 20
M  V30 20 1 18 21
M  V30 21 1 18 22
M  V30 22 2 19 23
M  V30 23 2 21 24
M  V30 24 2 22 25
M  V30 25 1 9 10
M  V30 26 1 20 23
M  V30 27 1 24 25
M  V30 END BOND
M  V30 END CTAB
M  END
>  <Structure No>
762

>  <Catalog ID>
Z434458558

>  <MW (desalted)>
363.435

>  <ClogP>
0.855

>  <HBD>
2

>  <TPSA>
96.330

>  <RotBonds>
3

>  <Target>
ATM

>  <fromRegid>


>  <Similarity>


$$$$
Compound 763
Actelion Java MolfileCreator 2.0

  0  0  0  0  0  0              0 V3000
M  V30 BEGIN CTAB
M  V30 COUNTS 24 26 0 0 0
M  V30 BEGIN ATOM
M  V30 1 S 0.0 0.0 0.0 0
M  V30 2 C -1.5033 0.0117 0.0 0
M  V30 3 C 0.4463 1.4329 0.0 0
M  V30 4 N -1.9731 1.4446 0.0 0
M  V30 5 C -0.7751 2.3255 0.0 0
M  V30 6 C -0.7869 3.8289 0.0 0
M  V30 7 O -2.0906 4.5805 0.0 0
M  V30 8 C -2.1023 6.0839 0.0 0
M  V30 9 C -3.406 6.8356 0.0 0
M  V30 10 C -0.8221 6.8356 0.0 0
M  V30 11 C -3.4178 8.339 0.0 0
M  V30 12 C -0.8339 8.339 0.0 0
M  V30 13 N -4.7215 9.0907 0.0 0
M  V30 14 C -2.1376 9.0907 0.0 0
M  V30 15 C -4.7332 10.594 0.0 0
M  V30 16 O -3.453 11.3457 0.0 0
M  V30 17 N -6.0369 11.3457 0.0 0
M  V30 18 C -6.0487 12.8491 0.0 0
M  V30 19 C -4.7685 13.6008 0.0 0
M  V30 20 C -7.3524 13.6008 0.0 0
M  V30 21 C -4.7802 15.1042 0.0 0
M  V30 22 C -7.3641 15.1042 0.0 0
M  V30 23 C -6.0839 15.8559 0.0 0
M  V30 24 O -6.0957 17.3592 0.0 0
M  V30 END ATOM
M  V30 BEGIN BOND
M  V30 1 1 1 2
M  V30 2 1 1 3
M  V30 3 2 2 4
M  V30 4 2 3 5
M  V30 5 1 5 6
M  V30 6 1 6 7
M  V30 7 1 7 8
M  V30 8 2 8 9
M  V30 9 1 8 10
M  V30 10 1 9 11
M  V30 11 2 10 12
M  V30 12 1 11 13
M  V30 13 2 11 14
M  V30 14 1 13 15
M  V30 15 2 15 16
M  V30 16 1 15 17
M  V30 17 1 17 18
M  V30 18 1 18 19
M  V30 19 1 18 20
M  V30 20 1 19 21
M  V30 21 1 20 22
M  V30 22 1 21 23
M  V30 23 1 23 24
M  V30 24 1 4 5
M  V30 25 1 12 14
M  V30 26 1 22 23
M  V30 END BOND
M  V30 END CTAB
M  END
>  <Structure No>
763

>  <Catalog ID>
Z1150579909

>  <MW (desalted)>
347.432

>  <ClogP>
1.260

>  <HBD>
3

>  <TPSA>
83.480

>  <RotBonds>
5

>  <Target>
CHK2

>  <fromRegid>


>  <Similarity>


$$$$
Compound 764
Actelion Java MolfileCreator 2.0

  0  0  0  0  0  0              0 V3000
M  V30 BEGIN CTAB
M  V30 COUNTS 24 26 0 0 0
M  V30 BEGIN ATOM
M  V30 1 S 0.0 0.0 0.0 0
M  V30 2 C -0.0118 -1.4884 0.0 0
M  V30 3 C -1.3112 0.756 0.0 0
M  V30 4 C -1.323 -2.2208 0.0 0
M  V30 5 C 1.2757 -2.2208 0.0 0
M  V30 6 C -2.6224 0.0118 0.0 0
M  V30 7 C -1.3348 -3.7092 0.0 0
M  V30 8 C -2.6342 -1.4647 0.0 0 CFG=2
M  V30 9 C 1.2639 -3.7092 0.0 0
M  V30 10 C -0.0472 -4.4416 0.0 0
M  V30 11 N -3.9454 -2.1971 0.0 0
M  V30 12 C -5.2567 -1.4411 0.0 0
M  V30 13 O -5.2685 0.0708 0.0 0
M  V30 14 N -6.5679 -2.1735 0.0 0
M  V30 15 C -7.8791 -1.4175 0.0 0
M  V30 16 C -9.1903 -2.1499 0.0 0
M  V30 17 C -9.2021 -3.6383 0.0 0
M  V30 18 C -10.5015 -1.3939 0.0 0
M  V30 19 C -10.5134 -4.3707 0.0 0
M  V30 20 C -11.8128 -2.1263 0.0 0
M  V30 21 O -10.5252 -5.8591 0.0 0
M  V30 22 C -11.8246 -3.6147 0.0 0
M  V30 23 O -13.1358 -4.3471 0.0 0
M  V30 24 C -14.447 -3.591 0.0 0
M  V30 END ATOM
M  V30 BEGIN BOND
M  V30 1 1 1 2
M  V30 2 1 1 3
M  V30 3 2 2 4
M  V30 4 1 2 5
M  V30 5 1 3 6
M  V30 6 1 4 7
M  V30 7 1 4 8
M  V30 8 2 5 9
M  V30 9 2 7 10
M  V30 10 1 8 11 CFG=1
M  V30 11 1 11 12
M  V30 12 2 12 13
M  V30 13 1 12 14
M  V30 14 1 14 15
M  V30 15 1 15 16
M  V30 16 2 16 17
M  V30 17 1 16 18
M  V30 18 1 17 19
M  V30 19 2 18 20
M  V30 20 1 19 21
M  V30 21 2 19 22
M  V30 22 1 22 23
M  V30 23 1 23 24
M  V30 24 1 6 8
M  V30 25 1 9 10
M  V30 26 1 20 22
M  V30 END BOND
M  V30 BEGIN COLLECTION
M  V30 MDLV30/STERAC1 ATOMS=(1 8)
M  V30 END COLLECTION
M  V30 END CTAB
M  END
>  <Structure No>
764

>  <Catalog ID>
Z447605632

>  <MW (desalted)>
344.428

>  <ClogP>
2.574

>  <HBD>
3

>  <TPSA>
70.590

>  <RotBonds>
4

>  <Target>
ATM

>  <fromRegid>


>  <Similarity>


$$$$
Compound 765
Actelion Java MolfileCreator 2.0

  0  0  0  0  0  0              0 V3000
M  V30 BEGIN CTAB
M  V30 COUNTS 22 24 0 0 0
M  V30 BEGIN ATOM
M  V30 1 O 0.0 0.0 0.0 0
M  V30 2 C -0.0118 1.5123 0.0 0
M  V30 3 N 1.276 2.2685 0.0 0
M  V30 4 C -1.3233 2.2685 0.0 0
M  V30 5 C 2.5639 1.5359 0.0 0
M  V30 6 C -2.6348 1.5359 0.0 0
M  V30 7 C -1.3351 3.7808 0.0 0
M  V30 8 C 3.8517 2.2921 0.0 0
M  V30 9 C -3.9463 2.2921 0.0 0
M  V30 10 C -2.6466 4.5488 0.0 0
M  V30 11 C 5.1396 1.5596 0.0 0
M  V30 12 C -3.9581 3.8045 0.0 0
M  V30 13 N 6.4275 2.3157 0.0 0
M  V30 14 C 7.7153 1.5832 0.0 0
M  V30 15 C 6.4157 3.8281 0.0 0
M  V30 16 C 9.0032 2.3394 0.0 0
M  V30 17 C 7.7035 4.5961 0.0 0
M  V30 18 C 8.9914 3.8517 0.0 0
M  V30 19 C 10.2911 1.6068 0.0 0
M  V30 20 C 10.2793 4.6197 0.0 0
M  V30 21 C 11.5789 2.363 0.0 0
M  V30 22 C 11.5671 3.8754 0.0 0
M  V30 END ATOM
M  V30 BEGIN BOND
M  V30 1 2 1 2
M  V30 2 1 2 3
M  V30 3 1 2 4
M  V30 4 1 3 5
M  V30 5 2 4 6
M  V30 6 1 4 7
M  V30 7 1 5 8
M  V30 8 1 6 9
M  V30 9 2 7 10
M  V30 10 1 8 11
M  V30 11 2 9 12
M  V30 12 1 11 13
M  V30 13 1 13 14
M  V30 14 1 13 15
M  V30 15 1 14 16
M  V30 16 1 15 17
M  V30 17 2 16 18
M  V30 18 1 16 19
M  V30 19 1 18 20
M  V30 20 2 19 21
M  V30 21 2 20 22
M  V30 22 1 10 12
M  V30 23 1 17 18
M  V30 24 1 21 22
M  V30 END BOND
M  V30 END CTAB
M  END
>  <Structure No>
765

>  <Catalog ID>
Z364385042

>  <MW (desalted)>
294.391

>  <ClogP>
3.339

>  <HBD>
1

>  <TPSA>
32.340

>  <RotBonds>
5

>  <Target>
Poly [ADP-ribose] polymerase-1

>  <fromRegid>
CHEMBL1688212

>  <Similarity>
0.87

$$$$
Compound 766
Actelion Java MolfileCreator 2.0

  0  0  0  0  0  0              0 V3000
M  V30 BEGIN CTAB
M  V30 COUNTS 29 31 0 0 0
M  V30 BEGIN ATOM
M  V30 1 S 0.0 0.0 0.0 0
M  V30 2 O 0.7336 -1.2897 0.0 0
M  V30 3 O -0.7691 1.3134 0.0 0
M  V30 4 C -1.3134 -0.7454 0.0 0
M  V30 5 C 1.2897 0.7572 0.0 0
M  V30 6 C -2.6268 0.0236 0.0 0
M  V30 7 C 2.5795 0.0236 0.0 0
M  V30 8 C -3.9403 -0.7218 0.0 0
M  V30 9 C -2.6387 1.5382 0.0 0
M  V30 10 C 3.8693 0.7809 0.0 0
M  V30 11 C -5.2537 0.0473 0.0 0
M  V30 12 C -3.9521 2.2955 0.0 0
M  V30 13 N 5.1591 0.0473 0.0 0
M  V30 14 C -5.2655 1.5619 0.0 0
M  V30 15 C 6.4488 0.8046 0.0 0
M  V30 16 O 6.437 2.3192 0.0 0
M  V30 17 N 7.7386 0.0709 0.0 0
M  V30 18 C 9.0284 0.8282 0.0 0
M  V30 19 C 10.3182 0.0946 0.0 0
M  V30 20 C 9.0165 2.3428 0.0 0
M  V30 21 C 11.6079 0.8519 0.0 0
M  V30 22 C 10.3063 3.1001 0.0 0
M  V30 23 N 12.8977 0.1183 0.0 0
M  V30 24 C 11.5961 2.3665 0.0 0
M  V30 25 C 13.0397 -1.3607 0.0 0
M  V30 26 C 14.2585 0.7454 0.0 0
M  V30 27 O 11.9156 -2.3547 0.0 0
M  V30 28 N 14.4951 -1.6565 0.0 0
M  V30 29 C 15.2524 -0.3549 0.0 0
M  V30 END ATOM
M  V30 BEGIN BOND
M  V30 1 2 1 2
M  V30 2 2 1 3
M  V30 3 1 1 4
M  V30 4 1 1 5
M  V30 5 1 4 6
M  V30 6 1 5 7
M  V30 7 2 6 8
M  V30 8 1 6 9
M  V30 9 1 7 10
M  V30 10 1 8 11
M  V30 11 2 9 12
M  V30 12 1 10 13
M  V30 13 2 11 14
M  V30 14 1 13 15
M  V30 15 2 15 16
M  V30 16 1 15 17
M  V30 17 1 17 18
M  V30 18 2 18 19
M  V30 19 1 18 20
M  V30 20 1 19 21
M  V30 21 2 20 22
M  V30 22 1 21 23
M  V30 23 2 21 24
M  V30 24 1 23 25
M  V30 25 1 23 26
M  V30 26 2 25 27
M  V30 27 1 25 28
M  V30 28 1 26 29
M  V30 29 1 12 14
M  V30 30 1 22 24
M  V30 31 1 28 29
M  V30 END BOND
M  V30 END CTAB
M  END
>  <Structure No>
766

>  <Catalog ID>
Z433451902

>  <MW (desalted)>
416.494

>  <ClogP>
0.647

>  <HBD>
3

>  <TPSA>
107.610

>  <RotBonds>
8

>  <Target>
CHK1

>  <fromRegid>


>  <Similarity>


$$$$
Compound 767
Actelion Java MolfileCreator 2.0

  0  0  0  0  0  0              0 V3000
M  V30 BEGIN CTAB
M  V30 COUNTS 24 26 0 0 0
M  V30 BEGIN ATOM
M  V30 1 S 0.0 0.0 0.0 0
M  V30 2 C -0.1645 1.4931 0.0 0
M  V30 3 C 1.4461 -0.2939 0.0 0
M  V30 4 C 1.1874 2.1162 0.0 0
M  V30 5 C -1.4696 2.2456 0.0 0
M  V30 6 C 2.1868 1.0111 0.0 0
M  V30 7 C -2.7746 1.5049 0.0 0
M  V30 8 N -4.0797 2.2573 0.0 0
M  V30 9 C -5.3847 1.5166 0.0 0
M  V30 10 O -5.3965 0.0352 0.0 0
M  V30 11 N -6.6897 2.2691 0.0 0
M  V30 12 C -7.9948 1.5284 0.0 0 CFG=2
M  V30 13 C -9.2998 2.2808 0.0 0
M  V30 14 C -8.0065 0.047 0.0 0
M  V30 15 C -9.3116 3.7857 0.0 0
M  V30 16 C -10.6049 1.5401 0.0 0
M  V30 17 C -10.6166 4.5382 0.0 0
M  V30 18 C -11.9099 2.2926 0.0 0
M  V30 19 N -10.6284 6.0431 0.0 0
M  V30 20 C -11.9216 3.8093 0.0 0
M  V30 21 C -11.9334 6.7956 0.0 0
M  V30 22 O -13.2267 4.5617 0.0 0
M  V30 23 O -11.9452 8.3005 0.0 0
M  V30 24 C -13.2384 6.0666 0.0 0
M  V30 END ATOM
M  V30 BEGIN BOND
M  V30 1 1 1 2
M  V30 2 1 1 3
M  V30 3 2 2 4
M  V30 4 1 2 5
M  V30 5 2 3 6
M  V30 6 1 5 7
M  V30 7 1 7 8
M  V30 8 1 8 9
M  V30 9 2 9 10
M  V30 10 1 9 11
M  V30 11 1 12 11 CFG=1
M  V30 12 1 12 13
M  V30 13 1 12 14
M  V30 14 2 13 15
M  V30 15 1 13 16
M  V30 16 1 15 17
M  V30 17 2 16 18
M  V30 18 1 17 19
M  V30 19 2 17 20
M  V30 20 1 19 21
M  V30 21 1 20 22
M  V30 22 2 21 23
M  V30 23 1 21 24
M  V30 24 1 4 6
M  V30 25 1 18 20
M  V30 26 1 22 24
M  V30 END BOND
M  V30 BEGIN COLLECTION
M  V30 MDLV30/STERAC1 ATOMS=(1 12)
M  V30 END COLLECTION
M  V30 END CTAB
M  END
>  <Structure No>
767

>  <Catalog ID>
Z433896226

>  <MW (desalted)>
345.416

>  <ClogP>
2.002

>  <HBD>
3

>  <TPSA>
79.460

>  <RotBonds>
5

>  <Target>
Tankyrase1

>  <fromRegid>


>  <Similarity>


$$$$
Compound 768
Actelion Java MolfileCreator 2.0

  0  0  0  0  0  0              0 V3000
M  V30 BEGIN CTAB
M  V30 COUNTS 23 25 0 0 0
M  V30 BEGIN ATOM
M  V30 1 O 0.0 0.0 0.0 0
M  V30 2 C -0.0118 -1.497 0.0 0
M  V30 3 N 1.2831 -2.2336 0.0 0
M  V30 4 C -1.3306 -2.2336 0.0 0
M  V30 5 C 1.2712 -3.7306 0.0 0
M  V30 6 O -1.3425 -3.7306 0.0 0
M  V30 7 C -0.0475 -4.4672 0.0 0
M  V30 8 C 2.5662 -4.4672 0.0 0
M  V30 9 C -0.0594 -5.9642 0.0 0
M  V30 10 C 2.5544 -5.9642 0.0 0
M  V30 11 C 1.2356 -6.7127 0.0 0
M  V30 12 C 3.8494 -6.7127 0.0 0 CFG=1
M  V30 13 N 5.1444 -5.9523 0.0 0
M  V30 14 C 3.8375 -8.2097 0.0 0
M  V30 15 C 6.4395 -6.7008 0.0 0
M  V30 16 O 6.4276 -8.1978 0.0 0
M  V30 17 N 7.7345 -5.9405 0.0 0
M  V30 18 C 9.0295 -6.689 0.0 0
M  V30 19 C 10.3245 -5.9286 0.0 0
M  V30 20 N 11.6909 -6.5345 0.0 0
M  V30 21 C 10.4671 -4.4197 0.0 0
M  V30 22 N 12.6889 -5.4058 0.0 0
M  V30 23 C 11.9285 -4.0989 0.0 0
M  V30 END ATOM
M  V30 BEGIN BOND
M  V30 1 2 1 2
M  V30 2 1 2 3
M  V30 3 1 2 4
M  V30 4 1 3 5
M  V30 5 1 4 6
M  V30 6 2 5 7
M  V30 7 1 5 8
M  V30 8 1 7 9
M  V30 9 2 8 10
M  V30 10 2 9 11
M  V30 11 1 10 12
M  V30 12 1 12 13 CFG=1
M  V30 13 1 12 14
M  V30 14 1 13 15
M  V30 15 2 15 16
M  V30 16 1 15 17
M  V30 17 1 17 18
M  V30 18 1 18 19
M  V30 19 2 19 20
M  V30 20 1 19 21
M  V30 21 1 20 22
M  V30 22 2 21 23
M  V30 23 1 6 7
M  V30 24 1 10 11
M  V30 25 1 22 23
M  V30 END BOND
M  V30 BEGIN COLLECTION
M  V30 MDLV30/STERAC1 ATOMS=(1 12)
M  V30 END COLLECTION
M  V30 END CTAB
M  END
>  <Structure No>
768

>  <Catalog ID>
Z535626280

>  <MW (desalted)>
315.327

>  <ClogP>
0.026

>  <HBD>
4

>  <TPSA>
108.140

>  <RotBonds>
4

>  <Target>
parp1

>  <fromRegid>


>  <Similarity>


$$$$
Compound 769
Actelion Java MolfileCreator 2.0

  0  0  0  0  0  0              0 V3000
M  V30 BEGIN CTAB
M  V30 COUNTS 24 26 0 0 0
M  V30 BEGIN ATOM
M  V30 1 O 0.0 0.0 0.0 0
M  V30 2 C -0.0118 -1.4965 0.0 0
M  V30 3 N 1.2827 -2.2329 0.0 0
M  V30 4 C -1.3302 -2.2329 0.0 0
M  V30 5 C 1.2708 -3.7295 0.0 0
M  V30 6 O -1.3421 -3.7295 0.0 0
M  V30 7 C -0.0475 -4.4659 0.0 0
M  V30 8 C 2.5655 -4.4659 0.0 0
M  V30 9 C -0.0593 -5.9624 0.0 0
M  V30 10 C 2.5536 -5.9624 0.0 0
M  V30 11 C 1.2352 -6.7107 0.0 0
M  V30 12 C 3.8482 -6.7107 0.0 0 CFG=1
M  V30 13 N 5.1429 -5.9506 0.0 0
M  V30 14 C 3.8364 -8.2073 0.0 0
M  V30 15 C 6.4375 -6.6988 0.0 0
M  V30 16 O 6.4257 -8.1954 0.0 0
M  V30 17 N 7.7322 -5.9387 0.0 0
M  V30 18 C 9.0268 -6.687 0.0 0
M  V30 19 C 10.3215 -5.9268 0.0 0
M  V30 20 C 11.6161 -6.6751 0.0 0
M  V30 21 C 10.3096 -4.4065 0.0 0
M  V30 22 N 12.9107 -5.9149 0.0 0
M  V30 23 C 11.6042 -3.6463 0.0 0
M  V30 24 C 12.8989 -4.3946 0.0 0
M  V30 END ATOM
M  V30 BEGIN BOND
M  V30 1 2 1 2
M  V30 2 1 2 3
M  V30 3 1 2 4
M  V30 4 1 3 5
M  V30 5 1 4 6
M  V30 6 2 5 7
M  V30 7 1 5 8
M  V30 8 1 7 9
M  V30 9 2 8 10
M  V30 10 2 9 11
M  V30 11 1 10 12
M  V30 12 1 12 13 CFG=1
M  V30 13 1 12 14
M  V30 14 1 13 15
M  V30 15 2 15 16
M  V30 16 1 15 17
M  V30 17 1 17 18
M  V30 18 1 18 19
M  V30 19 2 19 20
M  V30 20 1 19 21
M  V30 21 1 20 22
M  V30 22 2 21 23
M  V30 23 2 22 24
M  V30 24 1 6 7
M  V30 25 1 10 11
M  V30 26 1 23 24
M  V30 END BOND
M  V30 BEGIN COLLECTION
M  V30 MDLV30/STERAC1 ATOMS=(1 12)
M  V30 END COLLECTION
M  V30 END CTAB
M  END
>  <Structure No>
769

>  <Catalog ID>
Z432469376

>  <MW (desalted)>
326.350

>  <ClogP>
0.430

>  <HBD>
3

>  <TPSA>
92.350

>  <RotBonds>
4

>  <Target>
Tankyrase1, parp2

>  <fromRegid>


>  <Similarity>


$$$$
Compound 770
Actelion Java MolfileCreator 2.0

  0  0  0  0  0  0              0 V3000
M  V30 BEGIN CTAB
M  V30 COUNTS 20 21 0 0 0
M  V30 BEGIN ATOM
M  V30 1 S 0.0 0.0 0.0 0
M  V30 2 C 1.4161 -0.4484 0.0 0
M  V30 3 C -0.3186 1.4751 0.0 0 CFG=2
M  V30 4 N 1.8646 -1.8646 0.0 0
M  V30 5 N 2.6199 0.4484 0.0 0
M  V30 6 C -1.7584 1.9472 0.0 0
M  V30 7 C 0.7789 2.4901 0.0 0
M  V30 8 N 3.3516 -1.8528 0.0 0
M  V30 9 C 3.8237 -0.4248 0.0 0
M  V30 10 C 2.6081 1.959 0.0 0
M  V30 11 O -2.8795 0.9559 0.0 0
M  V30 12 N -2.077 3.4224 0.0 0
M  V30 13 O 5.2398 0.0472 0.0 0
M  V30 14 C 3.8945 2.7143 0.0 0
M  V30 15 C -1.0857 4.5435 0.0 0
M  V30 16 C -3.4578 4.0479 0.0 0
M  V30 17 C 3.8827 4.2249 0.0 0
M  V30 18 O 0.3894 4.4019 0.0 0
M  V30 19 N -1.841 5.8535 0.0 0
M  V30 20 C -3.3162 5.5467 0.0 0
M  V30 END ATOM
M  V30 BEGIN BOND
M  V30 1 1 1 2
M  V30 2 1 3 1 CFG=3
M  V30 3 2 2 4
M  V30 4 1 2 5
M  V30 5 1 3 6
M  V30 6 1 3 7
M  V30 7 1 4 8
M  V30 8 1 5 9
M  V30 9 1 5 10
M  V30 10 2 6 11
M  V30 11 1 6 12
M  V30 12 1 9 13
M  V30 13 1 10 14
M  V30 14 1 12 15
M  V30 15 1 12 16
M  V30 16 1 14 17
M  V30 17 2 15 18
M  V30 18 1 15 19
M  V30 19 1 16 20
M  V30 20 2 8 9
M  V30 21 1 19 20
M  V30 END BOND
M  V30 BEGIN COLLECTION
M  V30 MDLV30/STERAC1 ATOMS=(1 3)
M  V30 END COLLECTION
M  V30 END CTAB
M  END
>  <Structure No>
770

>  <Catalog ID>
Z112529980

>  <MW (desalted)>
299.349

>  <ClogP>
0.506

>  <HBD>
2

>  <TPSA>
100.350

>  <RotBonds>
5

>  <Target>
CHK1

>  <fromRegid>


>  <Similarity>


$$$$
Compound 771
Actelion Java MolfileCreator 2.0

  0  0  0  0  0  0              0 V3000
M  V30 BEGIN CTAB
M  V30 COUNTS 21 23 0 0 0
M  V30 BEGIN ATOM
M  V30 1 O 0.0 0.0 0.0 0
M  V30 2 C -0.0118 -1.4961 0.0 0
M  V30 3 N 1.2824 -2.2442 0.0 0
M  V30 4 C -1.3299 -2.2442 0.0 0
M  V30 5 C 1.2705 -3.7404 0.0 0
M  V30 6 C -1.3418 -3.7404 0.0 0
M  V30 7 C -2.6479 -1.4842 0.0 0
M  V30 8 C 2.5648 -4.4766 0.0 0
M  V30 9 C -0.0474 -4.4766 0.0 0
M  V30 10 C -2.6598 -4.4766 0.0 0
M  V30 11 C -3.966 -2.2323 0.0 0
M  V30 12 O 2.5529 -5.9728 0.0 0
M  V30 13 N 3.8591 -3.7166 0.0 0
M  V30 14 C -3.9779 -3.7166 0.0 0
M  V30 15 C 5.1534 -4.4528 0.0 0
M  V30 16 C 6.4477 -3.6929 0.0 0
M  V30 17 C 7.742 -4.4291 0.0 0
M  V30 18 C 9.1076 -3.7997 0.0 0
M  V30 19 C 7.8845 -5.9134 0.0 0
M  V30 20 C 10.105 -4.9041 0.0 0
M  V30 21 C 9.3451 -6.2102 0.0 0
M  V30 END ATOM
M  V30 BEGIN BOND
M  V30 1 2 1 2
M  V30 2 1 2 3
M  V30 3 1 2 4
M  V30 4 1 3 5
M  V30 5 2 4 6
M  V30 6 1 4 7
M  V30 7 1 5 8
M  V30 8 2 5 9
M  V30 9 1 6 10
M  V30 10 2 7 11
M  V30 11 2 8 12
M  V30 12 1 8 13
M  V30 13 2 10 14
M  V30 14 1 13 15
M  V30 15 1 15 16
M  V30 16 1 16 17
M  V30 17 1 17 18
M  V30 18 1 17 19
M  V30 19 1 18 20
M  V30 20 1 19 21
M  V30 21 1 6 9
M  V30 22 1 11 14
M  V30 23 1 20 21
M  V30 END BOND
M  V30 END CTAB
M  END
>  <Structure No>
771

>  <Catalog ID>
Z318777002

>  <MW (desalted)>
284.353

>  <ClogP>
2.735

>  <HBD>
2

>  <TPSA>
58.200

>  <RotBonds>
4

>  <Target>
Tankyrase1

>  <fromRegid>


>  <Similarity>


$$$$
Compound 772
Actelion Java MolfileCreator 2.0

  0  0  0  0  0  0              0 V3000
M  V30 BEGIN CTAB
M  V30 COUNTS 27 30 0 0 0
M  V30 BEGIN ATOM
M  V30 1 S 0.0 0.0 0.0 0
M  V30 2 C 1.4103 0.4701 0.0 0
M  V30 3 C -0.8932 1.2223 0.0 0
M  V30 4 N 2.6914 -0.2585 0.0 0
M  V30 5 C 1.3986 1.9745 0.0 0
M  V30 6 C -0.0235 2.4446 0.0 0
M  V30 7 C 3.9725 0.4936 0.0 0
M  V30 8 C 2.6796 2.7267 0.0 0
M  V30 9 C -0.4936 3.8784 0.0 0
M  V30 10 N 3.9607 1.998 0.0 0
M  V30 11 N 2.6679 4.231 0.0 0
M  V30 12 C -1.9627 4.1958 0.0 0
M  V30 13 C 0.4936 4.995 0.0 0
M  V30 14 C 1.3633 4.9832 0.0 0
M  V30 15 C -2.4328 5.6296 0.0 0
M  V30 16 C 0.0235 6.4289 0.0 0
M  V30 17 C 1.3515 6.4876 0.0 0 CFG=1
M  V30 18 C -1.4456 6.7462 0.0 0
M  V30 19 C 2.6326 7.2516 0.0 0
M  V30 20 C 0.047 7.2516 0.0 0
M  V30 21 F -1.9157 8.1801 0.0 0
M  V30 22 O 2.6209 8.756 0.0 0
M  V30 23 C 0.0352 8.756 0.0 0
M  V30 24 O 1.234 9.6492 0.0 0
M  V30 25 C -1.187 9.6492 0.0 0
M  V30 26 C 0.7639 11.0831 0.0 0
M  V30 27 C -0.7404 11.0831 0.0 0
M  V30 END ATOM
M  V30 BEGIN BOND
M  V30 1 1 1 2
M  V30 2 1 1 3
M  V30 3 2 2 4
M  V30 4 1 2 5
M  V30 5 2 3 6
M  V30 6 1 4 7
M  V30 7 2 5 8
M  V30 8 1 6 9
M  V30 9 2 7 10
M  V30 10 1 8 11
M  V30 11 2 9 12
M  V30 12 1 9 13
M  V30 13 1 11 14
M  V30 14 1 12 15
M  V30 15 2 13 16
M  V30 16 1 17 14 CFG=3
M  V30 17 2 15 18
M  V30 18 1 17 19
M  V30 19 1 17 20
M  V30 20 1 18 21
M  V30 21 1 19 22
M  V30 22 1 20 23
M  V30 23 1 23 24
M  V30 24 2 23 25
M  V30 25 1 24 26
M  V30 26 1 25 27
M  V30 27 1 5 6
M  V30 28 1 8 10
M  V30 29 1 16 18
M  V30 30 2 26 27
M  V30 END BOND
M  V30 BEGIN COLLECTION
M  V30 MDLV30/STERAC1 ATOMS=(1 17)
M  V30 END COLLECTION
M  V30 END CTAB
M  END
>  <Structure No>
772

>  <Catalog ID>
Z285892750

>  <MW (desalted)>
383.439

>  <ClogP>
4.347

>  <HBD>
2

>  <TPSA>
71.180

>  <RotBonds>
7

>  <Target>
ATM

>  <fromRegid>


>  <Similarity>


$$$$
Compound 773
Actelion Java MolfileCreator 2.0

  0  0  0  0  0  0              0 V3000
M  V30 BEGIN CTAB
M  V30 COUNTS 20 22 0 0 0
M  V30 BEGIN ATOM
M  V30 1 O 0.0 0.0 0.0 0
M  V30 2 C -0.0117 1.5081 0.0 0
M  V30 3 N -1.3195 2.2739 0.0 0
M  V30 4 C 1.2724 2.2739 0.0 0
M  V30 5 C -1.3313 3.782 0.0 0
M  V30 6 C 1.2606 3.782 0.0 0
M  V30 7 C 2.5567 1.5316 0.0 0
M  V30 8 C -2.6391 4.536 0.0 0
M  V30 9 C -0.0471 4.536 0.0 0
M  V30 10 C 2.5449 4.536 0.0 0
M  V30 11 C 3.8409 2.2975 0.0 0
M  V30 12 O -2.6509 6.0441 0.0 0
M  V30 13 N -3.9469 3.8056 0.0 0
M  V30 14 C 3.8291 3.8056 0.0 0
M  V30 15 C -5.2547 4.5596 0.0 0
M  V30 16 C -6.5626 3.8291 0.0 0
M  V30 17 O -7.9411 4.4536 0.0 0
M  V30 18 C -6.7275 2.3564 0.0 0
M  V30 19 C -8.9543 3.3578 0.0 0
M  V30 20 C -8.2003 2.0618 0.0 0
M  V30 END ATOM
M  V30 BEGIN BOND
M  V30 1 2 1 2
M  V30 2 1 2 3
M  V30 3 1 2 4
M  V30 4 1 3 5
M  V30 5 2 4 6
M  V30 6 1 4 7
M  V30 7 1 5 8
M  V30 8 2 5 9
M  V30 9 1 6 10
M  V30 10 2 7 11
M  V30 11 2 8 12
M  V30 12 1 8 13
M  V30 13 2 10 14
M  V30 14 1 13 15
M  V30 15 1 15 16
M  V30 16 1 16 17
M  V30 17 2 16 18
M  V30 18 1 17 19
M  V30 19 1 18 20
M  V30 20 1 6 9
M  V30 21 1 11 14
M  V30 22 2 19 20
M  V30 END BOND
M  V30 END CTAB
M  END
>  <Structure No>
773

>  <Catalog ID>
Z79377362

>  <MW (desalted)>
268.267

>  <ClogP>
1.259

>  <HBD>
2

>  <TPSA>
71.340

>  <RotBonds>
3

>  <Target>
parp15, parp10

>  <fromRegid>


>  <Similarity>


$$$$
Compound 774
Actelion Java MolfileCreator 2.0

  0  0  0  0  0  0              0 V3000
M  V30 BEGIN CTAB
M  V30 COUNTS 22 24 0 0 0
M  V30 BEGIN ATOM
M  V30 1 O 0.0 0.0 0.0 0
M  V30 2 C -0.6278 1.386 0.0 0
M  V30 3 N -2.1086 1.7058 0.0 0
M  V30 4 C 0.1066 2.7009 0.0 0
M  V30 5 C -2.2744 3.2103 0.0 0
M  V30 6 C -3.234 0.7107 0.0 0
M  V30 7 C -0.9121 3.8263 0.0 0
M  V30 8 C -2.9378 -0.7463 0.0 0
M  V30 9 C -1.5163 -1.1964 0.0 0
M  V30 10 C -4.0632 -1.7414 0.0 0
M  V30 11 C -1.2201 -2.6535 0.0 0
M  V30 12 C -3.7671 -3.1984 0.0 0
M  V30 13 N 0.2013 -3.1037 0.0 0
M  V30 14 C -2.3455 -3.6486 0.0 0
M  V30 15 C 0.4975 -4.5608 0.0 0
M  V30 16 O -0.6278 -5.5559 0.0 0
M  V30 17 C 1.919 -5.0109 0.0 0
M  V30 18 N 3.1274 -4.1106 0.0 0
M  V30 19 C 2.3692 -6.4325 0.0 0
M  V30 20 C 4.3357 -4.9872 0.0 0
M  V30 21 C 3.1155 -2.5943 0.0 0
M  V30 22 C 3.8618 -6.4206 0.0 0
M  V30 END ATOM
M  V30 BEGIN BOND
M  V30 1 2 1 2
M  V30 2 1 2 3
M  V30 3 1 2 4
M  V30 4 1 3 5
M  V30 5 1 3 6
M  V30 6 1 4 7
M  V30 7 1 6 8
M  V30 8 2 8 9
M  V30 9 1 8 10
M  V30 10 1 9 11
M  V30 11 2 10 12
M  V30 12 1 11 13
M  V30 13 2 11 14
M  V30 14 1 13 15
M  V30 15 2 15 16
M  V30 16 1 15 17
M  V30 17 1 17 18
M  V30 18 2 17 19
M  V30 19 1 18 20
M  V30 20 1 18 21
M  V30 21 1 19 22
M  V30 22 1 5 7
M  V30 23 1 12 14
M  V30 24 2 20 22
M  V30 END BOND
M  V30 END CTAB
M  END
>  <Structure No>
774

>  <Catalog ID>
Z356152936

>  <MW (desalted)>
297.352

>  <ClogP>
1.241

>  <HBD>
1

>  <TPSA>
54.340

>  <RotBonds>
4

>  <Target>
Serine/threonine-protein kinase Chk2

>  <fromRegid>
CHEMBL539474

>  <Similarity>
0.88

$$$$
Compound 775
Actelion Java MolfileCreator 2.0

  0  0  0  0  0  0              0 V3000
M  V30 BEGIN CTAB
M  V30 COUNTS 21 23 0 0 0
M  V30 BEGIN ATOM
M  V30 1 S 0.0 0.0 0.0 0
M  V30 2 C -0.1648 1.4953 0.0 0
M  V30 3 C 1.4482 -0.2943 0.0 0
M  V30 4 C 1.1892 2.1194 0.0 0
M  V30 5 C -1.4718 2.2489 0.0 0
M  V30 6 C 2.19 1.0126 0.0 0
M  V30 7 C -2.7788 1.5189 0.0 0
M  V30 8 N -4.0857 2.2725 0.0 0
M  V30 9 C -5.3927 1.5424 0.0 0
M  V30 10 O -5.4045 0.0588 0.0 0
M  V30 11 C -6.6997 2.296 0.0 0
M  V30 12 N -6.7115 3.8032 0.0 0
M  V30 13 C -8.0067 1.566 0.0 0
M  V30 14 C -8.0185 4.5567 0.0 0
M  V30 15 C -9.3137 2.3196 0.0 0
M  V30 16 O -8.0303 6.0639 0.0 0
M  V30 17 C -9.3255 3.8149 0.0 0
M  V30 18 C -10.6207 1.5895 0.0 0
M  V30 19 C -10.6324 4.5685 0.0 0
M  V30 20 C -11.9277 2.3431 0.0 0
M  V30 21 C -11.9394 3.8267 0.0 0
M  V30 END ATOM
M  V30 BEGIN BOND
M  V30 1 1 1 2
M  V30 2 1 1 3
M  V30 3 2 2 4
M  V30 4 1 2 5
M  V30 5 2 3 6
M  V30 6 1 5 7
M  V30 7 1 7 8
M  V30 8 1 8 9
M  V30 9 2 9 10
M  V30 10 1 9 11
M  V30 11 1 11 12
M  V30 12 2 11 13
M  V30 13 1 12 14
M  V30 14 1 13 15
M  V30 15 2 14 16
M  V30 16 1 14 17
M  V30 17 1 15 18
M  V30 18 1 17 19
M  V30 19 2 18 20
M  V30 20 2 19 21
M  V30 21 1 4 6
M  V30 22 2 15 17
M  V30 23 1 20 21
M  V30 END BOND
M  V30 END CTAB
M  END
>  <Structure No>
775

>  <Catalog ID>
Z70995976

>  <MW (desalted)>
298.360

>  <ClogP>
1.858

>  <HBD>
2

>  <TPSA>
58.200

>  <RotBonds>
4

>  <Target>
Tankyrase1

>  <fromRegid>


>  <Similarity>


$$$$
Compound 776
Actelion Java MolfileCreator 2.0

  0  0  0  0  0  0              0 V3000
M  V30 BEGIN CTAB
M  V30 COUNTS 15 16 0 0 0
M  V30 BEGIN ATOM
M  V30 1 O 0.0 0.0 0.0 0
M  V30 2 C -0.0117 1.5091 0.0 0
M  V30 3 N 1.2733 2.2754 0.0 0
M  V30 4 N -1.3204 2.2754 0.0 0
M  V30 5 C 2.5584 1.5327 0.0 0
M  V30 6 C -2.6292 1.5327 0.0 0
M  V30 7 C 2.5466 0.0471 0.0 0
M  V30 8 C 3.8435 2.299 0.0 0
M  V30 9 C -3.9379 2.299 0.0 0
M  V30 10 N 3.8317 -0.6838 0.0 0
M  V30 11 C 5.1287 1.5563 0.0 0
M  V30 12 C -5.3998 1.9217 0.0 0
M  V30 13 C -4.3387 3.761 0.0 0
M  V30 14 C 5.1169 0.0707 0.0 0
M  V30 15 C -5.8007 3.3837 0.0 0
M  V30 END ATOM
M  V30 BEGIN BOND
M  V30 1 2 1 2
M  V30 2 1 2 3
M  V30 3 1 2 4
M  V30 4 1 3 5
M  V30 5 1 4 6
M  V30 6 2 5 7
M  V30 7 1 5 8
M  V30 8 1 6 9
M  V30 9 1 7 10
M  V30 10 2 8 11
M  V30 11 1 9 12
M  V30 12 1 9 13
M  V30 13 2 10 14
M  V30 14 1 12 15
M  V30 15 1 11 14
M  V30 16 1 13 15
M  V30 END BOND
M  V30 END CTAB
M  END
>  <Structure No>
776

>  <Catalog ID>
Z381531318

>  <MW (desalted)>
205.256

>  <ClogP>
2.108

>  <HBD>
2

>  <TPSA>
54.020

>  <RotBonds>
3

>  <Target>
Serine/threonine-protein kinase Chk2

>  <fromRegid>
CHEMBL1998193

>  <Similarity>
0.86

$$$$
Compound 777
Actelion Java MolfileCreator 2.0

  0  0  0  0  0  0              0 V3000
M  V30 BEGIN CTAB
M  V30 COUNTS 25 27 0 0 0
M  V30 BEGIN ATOM
M  V30 1 O 0.0 0.0 0.0 0
M  V30 2 C -0.0118 -1.4925 0.0 0
M  V30 3 N -1.3267 -2.227 0.0 0
M  V30 4 N 1.2793 -2.227 0.0 0
M  V30 5 C -2.6416 -1.4689 0.0 0
M  V30 6 C -1.3385 -3.7196 0.0 0
M  V30 7 C 2.5705 -1.4689 0.0 0
M  V30 8 C -3.9565 -2.2033 0.0 0
M  V30 9 C -2.6535 -4.4659 0.0 0
M  V30 10 C 3.8617 -2.2033 0.0 0
M  V30 11 N -3.9684 -3.6959 0.0 0
M  V30 12 N 5.153 -1.4452 0.0 0
M  V30 13 C -5.2833 -4.4422 0.0 0
M  V30 14 C 6.4442 -2.1796 0.0 0
M  V30 15 C -5.2951 -5.9348 0.0 0
M  V30 16 C -6.5982 -3.6722 0.0 0
M  V30 17 N 7.7354 -1.4215 0.0 0
M  V30 18 N 6.4323 -3.6722 0.0 0
M  V30 19 O -4.0039 -6.6693 0.0 0
M  V30 20 C -6.61 -6.6693 0.0 0
M  V30 21 C -7.9131 -4.4185 0.0 0
M  V30 22 C 9.0266 -2.1559 0.0 0
M  V30 23 C 7.7235 -4.4185 0.0 0
M  V30 24 C -7.9249 -5.9111 0.0 0
M  V30 25 C 9.0148 -3.6485 0.0 0
M  V30 END ATOM
M  V30 BEGIN BOND
M  V30 1 2 1 2
M  V30 2 1 2 3
M  V30 3 1 2 4
M  V30 4 1 3 5
M  V30 5 1 3 6
M  V30 6 1 4 7
M  V30 7 1 5 8
M  V30 8 1 6 9
M  V30 9 1 7 10
M  V30 10 1 8 11
M  V30 11 1 10 12
M  V30 12 1 11 13
M  V30 13 1 12 14
M  V30 14 2 13 15
M  V30 15 1 13 16
M  V30 16 2 14 17
M  V30 17 1 14 18
M  V30 18 1 15 19
M  V30 19 1 15 20
M  V30 20 2 16 21
M  V30 21 1 17 22
M  V30 22 2 18 23
M  V30 23 2 20 24
M  V30 24 2 22 25
M  V30 25 1 9 11
M  V30 26 1 21 24
M  V30 27 1 23 25
M  V30 END BOND
M  V30 END CTAB
M  END
>  <Structure No>
777

>  <Catalog ID>
Z558082812

>  <MW (desalted)>
342.396

>  <ClogP>
1.713

>  <HBD>
3

>  <TPSA>
93.620

>  <RotBonds>
5

>  <Target>
DNA_pk

>  <fromRegid>


>  <Similarity>


$$$$
Compound 778
Actelion Java MolfileCreator 2.0

  0  0  0  0  0  0              0 V3000
M  V30 BEGIN CTAB
M  V30 COUNTS 24 26 0 0 0
M  V30 BEGIN ATOM
M  V30 1 O 0.0 0.0 0.0 0
M  V30 2 C 1.2947 -0.7483 0.0 0
M  V30 3 N 2.5894 0.0237 0.0 0
M  V30 4 C 1.2828 -2.2449 0.0 0
M  V30 5 C 3.8841 -0.7245 0.0 0
M  V30 6 C 2.5775 -2.9814 0.0 0
M  V30 7 C -0.0356 -2.9814 0.0 0
M  V30 8 N 3.8723 -2.2212 0.0 0
M  V30 9 C 5.1789 0.0475 0.0 0
M  V30 10 C 2.5657 -4.478 0.0 0
M  V30 11 C -0.0475 -4.478 0.0 0
M  V30 12 N 6.4736 -0.7008 0.0 0
M  V30 13 C 1.2472 -5.2264 0.0 0
M  V30 14 C 7.7683 0.0712 0.0 0
M  V30 15 C 6.4617 -2.1974 0.0 0
M  V30 16 O 7.7564 1.5916 0.0 0
M  V30 17 N 9.0631 -0.677 0.0 0
M  V30 18 C 7.7564 -2.9339 0.0 0
M  V30 19 C 10.3578 0.095 0.0 0
M  V30 20 C 11.6525 -0.6533 0.0 0 CFG=2
M  V30 21 C 11.795 -2.138 0.0 0
M  V30 22 C 13.0185 -0.0237 0.0 0
M  V30 23 O 13.2561 -2.435 0.0 0
M  V30 24 C 14.0163 -1.1284 0.0 0
M  V30 END ATOM
M  V30 BEGIN BOND
M  V30 1 2 1 2
M  V30 2 1 2 3
M  V30 3 1 2 4
M  V30 4 1 3 5
M  V30 5 2 4 6
M  V30 6 1 4 7
M  V30 7 2 5 8
M  V30 8 1 5 9
M  V30 9 1 6 10
M  V30 10 2 7 11
M  V30 11 1 9 12
M  V30 12 2 10 13
M  V30 13 1 12 14
M  V30 14 1 12 15
M  V30 15 2 14 16
M  V30 16 1 14 17
M  V30 17 1 15 18
M  V30 18 1 17 19
M  V30 19 1 20 19 CFG=1
M  V30 20 1 20 21
M  V30 21 1 20 22
M  V30 22 1 21 23
M  V30 23 1 22 24
M  V30 24 1 6 8
M  V30 25 1 11 13
M  V30 26 1 23 24
M  V30 END BOND
M  V30 BEGIN COLLECTION
M  V30 MDLV30/STERAC1 ATOMS=(1 20)
M  V30 END COLLECTION
M  V30 END CTAB
M  END
>  <Structure No>
778

>  <Catalog ID>
Z558220948

>  <MW (desalted)>
330.382

>  <ClogP>
-0.530

>  <HBD>
2

>  <TPSA>
83.030

>  <RotBonds>
5

>  <Target>
parp2

>  <fromRegid>


>  <Similarity>


$$$$
Compound 779
Actelion Java MolfileCreator 2.0

  0  0  0  0  0  0              0 V3000
M  V30 BEGIN CTAB
M  V30 COUNTS 22 25 0 0 0
M  V30 BEGIN ATOM
M  V30 1 O 0.0 0.0 0.0 0
M  V30 2 C -1.4966 0.1649 0.0 0
M  V30 3 N -2.1213 1.5438 0.0 0
M  V30 4 C -2.3923 -1.037 0.0 0
M  V30 5 C -1.2492 2.7694 0.0 0
M  V30 6 C -3.6179 1.7088 0.0 0
M  V30 7 N -3.9008 -1.0252 0.0 0
M  V30 8 C -1.9445 -2.4512 0.0 0
M  V30 9 C -1.8738 4.1483 0.0 0 CFG=2
M  V30 10 C -4.2426 3.0876 0.0 0
M  V30 11 N -4.3722 -2.4394 0.0 0
M  V30 12 C -3.1701 -3.3233 0.0 0
M  V30 13 N -3.3705 4.3133 0.0 0
M  V30 14 C -1.0017 5.3739 0.0 0
M  V30 15 C -3.1819 -4.8082 0.0 0
M  V30 16 C -1.6263 6.7528 0.0 0
M  V30 17 C 0.4714 5.2325 0.0 0
M  V30 18 C -2.4512 -6.0928 0.0 0
M  V30 19 C -3.9479 -6.0928 0.0 0
M  V30 20 C -0.7542 7.9784 0.0 0
M  V30 21 C 1.3434 6.4581 0.0 0
M  V30 22 N 0.7188 7.837 0.0 0
M  V30 END ATOM
M  V30 BEGIN BOND
M  V30 1 2 1 2
M  V30 2 1 2 3
M  V30 3 1 2 4
M  V30 4 1 3 5
M  V30 5 1 3 6
M  V30 6 2 4 7
M  V30 7 1 4 8
M  V30 8 1 5 9
M  V30 9 1 6 10
M  V30 10 1 7 11
M  V30 11 2 8 12
M  V30 12 1 9 13
M  V30 13 1 9 14 CFG=3
M  V30 14 1 12 15
M  V30 15 2 14 16
M  V30 16 1 14 17
M  V30 17 1 15 18
M  V30 18 1 15 19
M  V30 19 1 16 20
M  V30 20 2 17 21
M  V30 21 2 20 22
M  V30 22 1 10 13
M  V30 23 1 11 12
M  V30 24 1 18 19
M  V30 25 1 21 22
M  V30 END BOND
M  V30 BEGIN COLLECTION
M  V30 MDLV30/STERAC1 ATOMS=(1 9)
M  V30 END COLLECTION
M  V30 END CTAB
M  END
>  <Structure No>
779

>  <Catalog ID>
Z2003988664

>  <MW (desalted)>
297.355

>  <ClogP>
0.269

>  <HBD>
2

>  <TPSA>
73.910

>  <RotBonds>
3

>  <Target>
CHK1

>  <fromRegid>


>  <Similarity>


$$$$
Compound 780
Actelion Java MolfileCreator 2.0

  0  0  0  0  0  0              0 V3000
M  V30 BEGIN CTAB
M  V30 COUNTS 27 29 0 0 0
M  V30 BEGIN ATOM
M  V30 1 S 0.0 0.0 0.0 0
M  V30 2 C -0.8948 1.2245 0.0 0
M  V30 3 C 1.4129 0.4709 0.0 0
M  V30 4 N -0.0235 2.4491 0.0 0
M  V30 5 N -2.402 1.2363 0.0 0
M  V30 6 C 1.4011 1.9781 0.0 0
M  V30 7 C 2.5668 -0.4474 0.0 0
M  V30 8 C -3.1555 2.5433 0.0 0
M  V30 9 C 2.555 2.9201 0.0 0
M  V30 10 C 4.0151 -0.1059 0.0 0
M  V30 11 O -2.4255 3.8503 0.0 0
M  V30 12 C -4.6627 2.555 0.0 0
M  V30 13 C 4.0033 2.6021 0.0 0
M  V30 14 C 4.6509 1.2481 0.0 0
M  V30 15 C -5.4163 3.862 0.0 0
M  V30 16 C -6.9234 3.8738 0.0 0
M  V30 17 C -7.677 5.1808 0.0 0
M  V30 18 C -7.677 2.5904 0.0 0
M  V30 19 C -9.1842 5.1926 0.0 0
M  V30 20 C -9.1842 2.6021 0.0 0
M  V30 21 O -9.9377 6.4995 0.0 0
M  V30 22 C -9.9377 3.9091 0.0 0
M  V30 23 O -9.9377 1.3187 0.0 0
M  V30 24 C -11.4449 6.5113 0.0 0
M  V30 25 O -11.4449 3.9209 0.0 0
M  V30 26 C -11.4449 1.3305 0.0 0
M  V30 27 C -12.1985 2.6375 0.0 0
M  V30 END ATOM
M  V30 BEGIN BOND
M  V30 1 1 1 2
M  V30 2 1 1 3
M  V30 3 2 2 4
M  V30 4 1 2 5
M  V30 5 2 3 6
M  V30 6 1 3 7
M  V30 7 1 5 8
M  V30 8 1 6 9
M  V30 9 1 7 10
M  V30 10 2 8 11
M  V30 11 1 8 12
M  V30 12 1 9 13
M  V30 13 1 10 14
M  V30 14 2 12 15 CFG=2
M  V30 15 1 15 16
M  V30 16 2 16 17
M  V30 17 1 16 18
M  V30 18 1 17 19
M  V30 19 2 18 20
M  V30 20 1 19 21
M  V30 21 2 19 22
M  V30 22 1 20 23
M  V30 23 1 21 24
M  V30 24 1 22 25
M  V30 25 1 23 26
M  V30 26 1 25 27
M  V30 27 1 4 6
M  V30 28 1 13 14
M  V30 29 1 20 22
M  V30 END BOND
M  V30 END CTAB
M  END
>  <Structure No>
780

>  <Catalog ID>
Z228295256

>  <MW (desalted)>
388.481

>  <ClogP>
4.332

>  <HBD>
1

>  <TPSA>
69.680

>  <RotBonds>
6

>  <Target>
Poly [ADP-ribose] polymerase-1

>  <fromRegid>
CHEMBL516766

>  <Similarity>
0.96

$$$$
Compound 781
Actelion Java MolfileCreator 2.0

  0  0  0  0  0  0              0 V3000
M  V30 BEGIN CTAB
M  V30 COUNTS 19 21 0 0 0
M  V30 BEGIN ATOM
M  V30 1 O 0.0 0.0 0.0 0
M  V30 2 C -0.0118 -1.4918 0.0 0
M  V30 3 N 1.2787 -2.2259 0.0 0
M  V30 4 C -1.326 -2.2259 0.0 0
M  V30 5 C 1.2668 -3.7177 0.0 0
M  V30 6 C 2.5692 -1.4681 0.0 0
M  V30 7 C -1.3379 -3.7177 0.0 0
M  V30 8 N -0.0473 -4.4636 0.0 0
M  V30 9 C 2.5574 -4.4636 0.0 0
M  V30 10 C 3.8598 -2.2022 0.0 0
M  V30 11 N -2.6521 -4.4636 0.0 0
M  V30 12 C 3.8479 -3.7059 0.0 0
M  V30 13 C -3.9663 -3.7059 0.0 0
M  V30 14 C -2.6639 -5.9555 0.0 0
M  V30 15 C -5.2806 -4.4518 0.0 0
M  V30 16 C -3.9782 -6.7014 0.0 0
M  V30 17 O -5.2924 -5.9436 0.0 0
M  V30 18 C -6.5948 -3.694 0.0 0
M  V30 19 C -3.99 -8.1932 0.0 0
M  V30 END ATOM
M  V30 BEGIN BOND
M  V30 1 2 1 2
M  V30 2 1 2 3
M  V30 3 1 2 4
M  V30 4 1 3 5
M  V30 5 1 3 6
M  V30 6 2 4 7
M  V30 7 2 5 8
M  V30 8 1 5 9
M  V30 9 2 6 10
M  V30 10 1 7 11
M  V30 11 2 9 12
M  V30 12 1 11 13
M  V30 13 1 11 14
M  V30 14 1 13 15
M  V30 15 1 14 16
M  V30 16 1 15 17
M  V30 17 1 15 18
M  V30 18 1 16 19
M  V30 19 1 7 8
M  V30 20 1 10 12
M  V30 21 1 16 17
M  V30 END BOND
M  V30 END CTAB
M  END
>  <Structure No>
781

>  <Catalog ID>
Z203890048

>  <MW (desalted)>
259.304

>  <ClogP>
1.384

>  <HBD>
0

>  <TPSA>
45.140

>  <RotBonds>
1

>  <Target>
DNA-dependent protein kinase

>  <fromRegid>
CHEMBL179043

>  <Similarity>
0.93

$$$$
Compound 782
Actelion Java MolfileCreator 2.0

  0  0  0  0  0  0              0 V3000
M  V30 BEGIN CTAB
M  V30 COUNTS 19 21 0 0 0
M  V30 BEGIN ATOM
M  V30 1 O 0.0 0.0 0.0 0
M  V30 2 C -0.0118 -1.4921 0.0 0
M  V30 3 N 1.2789 -2.2263 0.0 0
M  V30 4 C -1.3263 -2.2263 0.0 0
M  V30 5 C 1.2671 -3.7184 0.0 0
M  V30 6 C 2.5697 -1.4684 0.0 0
M  V30 7 C -1.3381 -3.7184 0.0 0
M  V30 8 N -0.0473 -4.4645 0.0 0
M  V30 9 C 2.5579 -4.4645 0.0 0
M  V30 10 C 3.8605 -2.2026 0.0 0
M  V30 11 N -2.6526 -4.4645 0.0 0
M  V30 12 C 3.8487 -3.7066 0.0 0
M  V30 13 C -3.9671 -3.7066 0.0 0
M  V30 14 C -2.6644 -5.9566 0.0 0
M  V30 15 C -5.2816 -4.4526 0.0 0
M  V30 16 C -3.9789 -6.7026 0.0 0
M  V30 17 N -5.2934 -5.9447 0.0 0
M  V30 18 C -6.6079 -6.6908 0.0 0
M  V30 19 C -6.6197 -8.1829 0.0 0
M  V30 END ATOM
M  V30 BEGIN BOND
M  V30 1 2 1 2
M  V30 2 1 2 3
M  V30 3 1 2 4
M  V30 4 1 3 5
M  V30 5 1 3 6
M  V30 6 2 4 7
M  V30 7 2 5 8
M  V30 8 1 5 9
M  V30 9 2 6 10
M  V30 10 1 7 11
M  V30 11 2 9 12
M  V30 12 1 11 13
M  V30 13 1 11 14
M  V30 14 1 13 15
M  V30 15 1 14 16
M  V30 16 1 15 17
M  V30 17 1 17 18
M  V30 18 1 18 19
M  V30 19 1 7 8
M  V30 20 1 10 12
M  V30 21 1 16 17
M  V30 END BOND
M  V30 END CTAB
M  END
>  <Structure No>
782

>  <Catalog ID>
Z56842181

>  <MW (desalted)>
258.319

>  <ClogP>
1.436

>  <HBD>
0

>  <TPSA>
39.150

>  <RotBonds>
2

>  <Target>
DNA-dependent protein kinase

>  <fromRegid>
CHEMBL179043

>  <Similarity>
0.85

$$$$
Compound 783
Actelion Java MolfileCreator 2.0

  0  0  0  0  0  0              0 V3000
M  V30 BEGIN CTAB
M  V30 COUNTS 34 38 0 0 0
M  V30 BEGIN ATOM
M  V30 1 S 0.0 0.0 0.0 0
M  V30 2 O -0.7547 1.309 0.0 0
M  V30 3 O 0.7429 -1.2854 0.0 0
M  V30 4 N 1.2854 0.7547 0.0 0
M  V30 5 C -1.309 -0.7429 0.0 0
M  V30 6 C 2.5708 0.0235 0.0 0
M  V30 7 C 1.2736 2.2642 0.0 0
M  V30 8 C -2.618 0.0235 0.0 0
M  V30 9 C -1.3208 -2.2288 0.0 0
M  V30 10 C 3.8562 0.7783 0.0 0
M  V30 11 C 2.559 3.0189 0.0 0
M  V30 12 C -3.927 -0.7193 0.0 0
M  V30 13 C -2.6298 -2.96 0.0 0
M  V30 14 N 3.8444 2.2878 0.0 0
M  V30 15 N -5.3657 -0.2476 0.0 0
M  V30 16 C -3.9388 -2.2052 0.0 0
M  V30 17 C 5.1299 3.0425 0.0 0
M  V30 18 C -6.262 -1.4505 0.0 0
M  V30 19 N -5.3775 -2.6534 0.0 0
M  V30 20 O 6.4153 2.3114 0.0 0
M  V30 21 C 5.1181 4.552 0.0 0
M  V30 22 O -7.7715 -1.4387 0.0 0
M  V30 23 O 6.4035 5.3068 0.0 0
M  V30 24 C 6.3917 6.8163 0.0 0
M  V30 25 C 7.6772 7.571 0.0 0
M  V30 26 C 5.0827 7.571 0.0 0
M  V30 27 C 7.6654 9.0805 0.0 0
M  V30 28 C 5.0709 9.0805 0.0 0
M  V30 29 C 6.3563 9.8353 0.0 0
M  V30 30 C 8.9508 9.8353 0.0 0
M  V30 31 N 6.3445 11.3448 0.0 0
M  V30 32 C 8.939 11.3448 0.0 0
M  V30 33 C 7.63 12.0995 0.0 0
M  V30 34 O 7.6182 13.609 0.0 0
M  V30 END ATOM
M  V30 BEGIN BOND
M  V30 1 2 1 2
M  V30 2 2 1 3
M  V30 3 1 1 4
M  V30 4 1 1 5
M  V30 5 1 4 6
M  V30 6 1 4 7
M  V30 7 2 5 8
M  V30 8 1 5 9
M  V30 9 1 6 10
M  V30 10 1 7 11
M  V30 11 1 8 12
M  V30 12 2 9 13
M  V30 13 1 10 14
M  V30 14 1 12 15
M  V30 15 2 12 16
M  V30 16 1 14 17
M  V30 17 1 15 18
M  V30 18 1 16 19
M  V30 19 2 17 20
M  V30 20 1 17 21
M  V30 21 2 18 22
M  V30 22 1 21 23
M  V30 23 1 23 24
M  V30 24 2 24 25
M  V30 25 1 24 26
M  V30 26 1 25 27
M  V30 27 2 26 28
M  V30 28 2 27 29
M  V30 29 1 27 30
M  V30 30 1 29 31
M  V30 31 1 30 32
M  V30 32 1 31 33
M  V30 33 2 33 34
M  V30 34 1 11 14
M  V30 35 1 13 16
M  V30 36 1 18 19
M  V30 37 1 28 29
M  V30 38 1 32 33
M  V30 END BOND
M  V30 END CTAB
M  END
>  <Structure No>
783

>  <Catalog ID>
Z273256524

>  <MW (desalted)>
485.513

>  <ClogP>
1.967

>  <HBD>
3

>  <TPSA>
137.150

>  <RotBonds>
4

>  <Target>
parp10

>  <fromRegid>


>  <Similarity>


$$$$
Compound 784
Actelion Java MolfileCreator 2.0

  0  0  0  0  0  0              0 V3000
M  V30 BEGIN CTAB
M  V30 COUNTS 21 21 0 0 0
M  V30 BEGIN ATOM
M  V30 1 Cl 0.0 0.0 0.0 0
M  V30 2 C -1.486 -0.267 0.0 0
M  V30 3 C -1.9852 -1.6717 0.0 0
M  V30 4 C -2.4844 0.8823 0.0 0
M  V30 5 C -3.4712 -1.9387 0.0 0
M  V30 6 C -1.01 -2.7978 0.0 0
M  V30 7 C -3.9704 0.6153 0.0 0
M  V30 8 C -4.4696 -0.7894 0.0 0
M  V30 9 C 0.4527 -2.5076 0.0 0 CFG=1
M  V30 10 N 1.4279 -3.6337 0.0 0
M  V30 11 C 0.9287 -1.0796 0.0 0
M  V30 12 C 2.8907 -3.3435 0.0 0
M  V30 13 O 3.3667 -1.9155 0.0 0
M  V30 14 N 3.8659 -4.4696 0.0 0
M  V30 15 C 5.3287 -4.1794 0.0 0
M  V30 16 C 6.3039 -5.3055 0.0 0
M  V30 17 C 5.8047 -2.7514 0.0 0
M  V30 18 O 7.7667 -5.0152 0.0 0
M  V30 19 N 5.8047 -6.7102 0.0 0
M  V30 20 O 4.8063 -1.6021 0.0 0
M  V30 21 N 7.2675 -2.4612 0.0 0
M  V30 END ATOM
M  V30 BEGIN BOND
M  V30 1 1 1 2
M  V30 2 2 2 3
M  V30 3 1 2 4
M  V30 4 1 3 5
M  V30 5 1 3 6
M  V30 6 2 4 7
M  V30 7 2 5 8
M  V30 8 1 6 9
M  V30 9 1 9 10 CFG=3
M  V30 10 1 9 11
M  V30 11 1 10 12
M  V30 12 2 12 13
M  V30 13 1 12 14
M  V30 14 1 14 15
M  V30 15 1 15 16
M  V30 16 1 15 17
M  V30 17 2 16 18
M  V30 18 1 16 19
M  V30 19 2 17 20
M  V30 20 1 17 21
M  V30 21 1 7 8
M  V30 END BOND
M  V30 BEGIN COLLECTION
M  V30 MDLV30/STERAC1 ATOMS=(1 9)
M  V30 END COLLECTION
M  V30 END CTAB
M  END
>  <Structure No>
784

>  <Catalog ID>
Z435724988

>  <MW (desalted)>
312.752

>  <ClogP>
0.346

>  <HBD>
4

>  <TPSA>
127.310

>  <RotBonds>
6

>  <Target>
ATM

>  <fromRegid>


>  <Similarity>


$$$$
Compound 785
Actelion Java MolfileCreator 2.0

  0  0  0  0  0  0              0 V3000
M  V30 BEGIN CTAB
M  V30 COUNTS 25 26 0 0 0
M  V30 BEGIN ATOM
M  V30 1 F 0.0 0.0 0.0 0
M  V30 2 C -1.3138 0.7693 0.0 0
M  V30 3 C -1.3256 2.2844 0.0 0
M  V30 4 C -2.6276 0.0236 0.0 0
M  V30 5 C -2.6395 3.0419 0.0 0
M  V30 6 C -0.0355 3.0419 0.0 0
M  V30 7 C -3.9415 0.793 0.0 0
M  V30 8 F -2.6513 4.557 0.0 0
M  V30 9 C -3.9533 2.3081 0.0 0
M  V30 10 N 1.2546 2.3081 0.0 0
M  V30 11 C 2.5448 3.0656 0.0 0
M  V30 12 C 1.2428 0.8167 0.0 0
M  V30 13 O 2.533 4.5807 0.0 0
M  V30 14 C 3.835 2.3317 0.0 0
M  V30 15 C 2.533 0.071 0.0 0
M  V30 16 O 5.1251 3.0893 0.0 0
M  V30 17 C 6.4153 2.3554 0.0 0
M  V30 18 C 7.7055 3.1129 0.0 0
M  V30 19 C 6.4035 0.864 0.0 0
M  V30 20 C 8.9957 2.3791 0.0 0
M  V30 21 C 7.6936 0.1183 0.0 0
M  V30 22 C 8.9838 0.8877 0.0 0
M  V30 23 C 10.274 0.142 0.0 0
M  V30 24 O 11.5642 0.9114 0.0 0
M  V30 25 N 10.2622 -1.3493 0.0 0
M  V30 END ATOM
M  V30 BEGIN BOND
M  V30 1 1 1 2
M  V30 2 2 2 3
M  V30 3 1 2 4
M  V30 4 1 3 5
M  V30 5 1 3 6
M  V30 6 2 4 7
M  V30 7 1 5 8
M  V30 8 2 5 9
M  V30 9 1 6 10
M  V30 10 1 10 11
M  V30 11 1 10 12
M  V30 12 2 11 13
M  V30 13 1 11 14
M  V30 14 1 12 15
M  V30 15 1 14 16
M  V30 16 1 16 17
M  V30 17 2 17 18
M  V30 18 1 17 19
M  V30 19 1 18 20
M  V30 20 2 19 21
M  V30 21 2 20 22
M  V30 22 1 22 23
M  V30 23 2 23 24
M  V30 24 1 23 25
M  V30 25 1 7 9
M  V30 26 1 21 22
M  V30 END BOND
M  V30 END CTAB
M  END
>  <Structure No>
785

>  <Catalog ID>
Z997292602

>  <MW (desalted)>
348.344

>  <ClogP>
2.546

>  <HBD>
1

>  <TPSA>
72.630

>  <RotBonds>
7

>  <Target>
parp14

>  <fromRegid>


>  <Similarity>


$$$$
Compound 786
Actelion Java MolfileCreator 2.0

  0  0  0  0  0  0              0 V3000
M  V30 BEGIN CTAB
M  V30 COUNTS 28 30 0 0 0
M  V30 BEGIN ATOM
M  V30 1 S 0.0 0.0 0.0 0
M  V30 2 O -0.7582 -1.2913 0.0 0
M  V30 3 O 0.7463 1.315 0.0 0
M  V30 4 N -1.315 0.77 0.0 0
M  V30 5 C 1.2913 -0.7345 0.0 0
M  V30 6 C -2.6301 0.0236 0.0 0
M  V30 7 C -1.3269 2.2865 0.0 0
M  V30 8 C 2.5827 0.0236 0.0 0
M  V30 9 C 1.2795 -2.2273 0.0 0
M  V30 10 C 3.8741 -0.7108 0.0 0
M  V30 11 C 2.5708 -2.9618 0.0 0
M  V30 12 C 3.8622 -2.2036 0.0 0
M  V30 13 C 5.1536 -2.9381 0.0 0
M  V30 14 N 5.1417 -4.4309 0.0 0
M  V30 15 C 6.4331 -5.1773 0.0 0
M  V30 16 O 6.4213 -6.6701 0.0 0
M  V30 17 N 7.7245 -4.4072 0.0 0
M  V30 18 C 7.7126 -2.8907 0.0 0
M  V30 19 C 9.004 -2.1325 0.0 0
M  V30 20 C 6.3976 -2.1325 0.0 0
M  V30 21 N 10.2954 -2.867 0.0 0
M  V30 22 C 8.9922 -0.616 0.0 0
M  V30 23 C 6.3857 -0.616 0.0 0
M  V30 24 C 11.6578 -2.2391 0.0 0
M  V30 25 C 10.4376 -4.348 0.0 0
M  V30 26 C 7.6771 0.1421 0.0 0
M  V30 27 C 12.653 -3.3409 0.0 0
M  V30 28 C 11.8948 -4.6441 0.0 0
M  V30 END ATOM
M  V30 BEGIN BOND
M  V30 1 2 1 2
M  V30 2 2 1 3
M  V30 3 1 1 4
M  V30 4 1 1 5
M  V30 5 1 4 6
M  V30 6 1 4 7
M  V30 7 2 5 8
M  V30 8 1 5 9
M  V30 9 1 8 10
M  V30 10 2 9 11
M  V30 11 2 10 12
M  V30 12 1 12 13
M  V30 13 1 13 14
M  V30 14 1 14 15
M  V30 15 2 15 16
M  V30 16 1 15 17
M  V30 17 1 17 18
M  V30 18 2 18 19
M  V30 19 1 18 20
M  V30 20 1 19 21
M  V30 21 1 19 22
M  V30 22 2 20 23
M  V30 23 1 21 24
M  V30 24 1 21 25
M  V30 25 2 22 26
M  V30 26 1 24 27
M  V30 27 1 25 28
M  V30 28 1 11 12
M  V30 29 1 23 26
M  V30 30 1 27 28
M  V30 END BOND
M  V30 END CTAB
M  END
>  <Structure No>
786

>  <Catalog ID>
Z432972080

>  <MW (desalted)>
402.510

>  <ClogP>
2.343

>  <HBD>
2

>  <TPSA>
81.750

>  <RotBonds>
5

>  <Target>
ATM

>  <fromRegid>


>  <Similarity>


$$$$
Compound 787
Actelion Java MolfileCreator 2.0

  0  0  0  0  0  0              0 V3000
M  V30 BEGIN CTAB
M  V30 COUNTS 19 21 0 0 0
M  V30 BEGIN ATOM
M  V30 1 O 0.0 0.0 0.0 0
M  V30 2 C -1.3085 0.7544 0.0 0 CFG=2
M  V30 3 C -2.6171 0.0235 0.0 0
M  V30 4 C -1.3203 2.2634 0.0 0
M  V30 5 C -2.7821 -1.45 0.0 0
M  V30 6 C -3.9964 0.6483 0.0 0
M  V30 7 N -0.0353 3.0297 0.0 0
M  V30 8 C -4.2558 -1.7447 0.0 0
M  V30 9 C -5.0103 -0.4479 0.0 0
M  V30 10 C -0.0471 4.5387 0.0 0
M  V30 11 N -1.3557 5.2932 0.0 0
M  V30 12 C 1.2378 5.2932 0.0 0
M  V30 13 C -1.3675 6.8022 0.0 0
M  V30 14 C 1.226 6.8022 0.0 0
M  V30 15 C 2.5228 4.5505 0.0 0
M  V30 16 N -0.0825 7.5567 0.0 0
M  V30 17 N 2.511 7.5567 0.0 0
M  V30 18 C 3.8078 5.305 0.0 0
M  V30 19 C 3.796 6.8258 0.0 0
M  V30 END ATOM
M  V30 BEGIN BOND
M  V30 1 1 2 1 CFG=3
M  V30 2 1 2 3
M  V30 3 1 2 4
M  V30 4 1 3 5
M  V30 5 1 3 6
M  V30 6 1 4 7
M  V30 7 1 5 8
M  V30 8 1 6 9
M  V30 9 1 7 10
M  V30 10 2 10 11
M  V30 11 1 10 12
M  V30 12 1 11 13
M  V30 13 1 12 14
M  V30 14 2 12 15
M  V30 15 2 13 16
M  V30 16 2 14 17
M  V30 17 1 15 18
M  V30 18 1 17 19
M  V30 19 1 8 9
M  V30 20 1 14 16
M  V30 21 2 18 19
M  V30 END BOND
M  V30 BEGIN COLLECTION
M  V30 MDLV30/STERAC1 ATOMS=(1 2)
M  V30 END COLLECTION
M  V30 END CTAB
M  END
>  <Structure No>
787

>  <Catalog ID>
Z1502780551

>  <MW (desalted)>
258.319

>  <ClogP>
1.998

>  <HBD>
2

>  <TPSA>
70.930

>  <RotBonds>
4

>  <Target>
DNA_pk

>  <fromRegid>


>  <Similarity>


$$$$
Compound 788
Actelion Java MolfileCreator 2.0

  0  0  0  0  0  0              0 V3000
M  V30 BEGIN CTAB
M  V30 COUNTS 25 27 0 0 0
M  V30 BEGIN ATOM
M  V30 1 O 0.0 0.0 0.0 0
M  V30 2 C -0.0117 1.5045 0.0 0
M  V30 3 N -1.3164 2.2567 0.0 0
M  V30 4 C 1.2694 2.2567 0.0 0
M  V30 5 C -1.3281 3.7612 0.0 0
M  V30 6 C 1.2576 3.7612 0.0 0
M  V30 7 C 2.5505 1.528 0.0 0
M  V30 8 N -0.047 4.5252 0.0 0
M  V30 9 C -2.6328 4.5252 0.0 0
M  V30 10 C 2.5388 4.5252 0.0 0
M  V30 11 C 3.8317 2.2802 0.0 0
M  V30 12 C -3.9375 3.7847 0.0 0
M  V30 13 C 3.82 3.7847 0.0 0
M  V30 14 C -5.2422 4.5487 0.0 0
M  V30 15 O -5.2539 6.0532 0.0 0
M  V30 16 N -6.5469 3.8082 0.0 0
M  V30 17 C -7.8516 4.5722 0.0 0
M  V30 18 C -6.5586 2.3272 0.0 0
M  V30 19 C -9.1562 3.8317 0.0 0
M  V30 20 C -10.4609 4.5957 0.0 0
M  V30 21 C -11.7656 3.8552 0.0 0
M  V30 22 C -10.4727 6.1002 0.0 0
M  V30 23 C -13.0703 4.6192 0.0 0
M  V30 24 C -11.7774 6.8525 0.0 0
M  V30 25 C -13.082 6.1237 0.0 0
M  V30 END ATOM
M  V30 BEGIN BOND
M  V30 1 2 1 2
M  V30 2 1 2 3
M  V30 3 1 2 4
M  V30 4 1 3 5
M  V30 5 2 4 6
M  V30 6 1 4 7
M  V30 7 2 5 8
M  V30 8 1 5 9
M  V30 9 1 6 10
M  V30 10 2 7 11
M  V30 11 1 9 12
M  V30 12 2 10 13
M  V30 13 1 12 14
M  V30 14 2 14 15
M  V30 15 1 14 16
M  V30 16 1 16 17
M  V30 17 1 16 18
M  V30 18 1 17 19
M  V30 19 1 19 20
M  V30 20 1 20 21
M  V30 21 1 20 22
M  V30 22 1 21 23
M  V30 23 1 22 24
M  V30 24 1 23 25
M  V30 25 1 6 8
M  V30 26 1 11 13
M  V30 27 1 24 25
M  V30 END BOND
M  V30 END CTAB
M  END
>  <Structure No>
788

>  <Catalog ID>
Z1001544832

>  <MW (desalted)>
341.447

>  <ClogP>
2.637

>  <HBD>
1

>  <TPSA>
61.770

>  <RotBonds>
6

>  <Target>
Poly [ADP-ribose] polymerase-1

>  <fromRegid>
CHEMBL3105400

>  <Similarity>
0.9

$$$$
Compound 789
Actelion Java MolfileCreator 2.0

  0  0  0  0  0  0              0 V3000
M  V30 BEGIN CTAB
M  V30 COUNTS 24 25 0 0 0
M  V30 BEGIN ATOM
M  V30 1 S 0.0 0.0 0.0 0
M  V30 2 C 1.2942 0.7718 0.0 0
M  V30 3 C -0.0118 -1.4961 0.0 0
M  V30 4 C 2.5885 0.0237 0.0 0
M  V30 5 C 1.2824 2.2917 0.0 0
M  V30 6 N 2.5767 -1.4724 0.0 0 CHG=1
M  V30 7 C 3.8828 0.7955 0.0 0
M  V30 8 C 2.5767 3.0516 0.0 0
M  V30 9 O 1.2586 -2.2086 0.0 0
M  V30 10 O 3.871 -2.2086 0.0 0 CHG=-1
M  V30 11 C 3.871 2.3154 0.0 0
M  V30 12 C 5.1653 3.0754 0.0 0
M  V30 13 O 5.1534 4.5953 0.0 0
M  V30 14 N 6.4595 2.3392 0.0 0
M  V30 15 C 7.7538 3.0991 0.0 0
M  V30 16 C 9.0481 2.3629 0.0 0
M  V30 17 O 9.0363 0.8668 0.0 0
M  V30 18 N 10.3424 3.1229 0.0 0
M  V30 19 C 11.6367 2.3867 0.0 0
M  V30 20 C 11.6248 0.8905 0.0 0
M  V30 21 C 12.931 3.1466 0.0 0
M  V30 22 N 12.9191 0.1424 0.0 0
M  V30 23 C 14.2253 2.4104 0.0 0
M  V30 24 C 14.2134 0.9143 0.0 0
M  V30 END ATOM
M  V30 BEGIN BOND
M  V30 1 1 1 2
M  V30 2 1 1 3
M  V30 3 2 2 4
M  V30 4 1 2 5
M  V30 5 1 4 6
M  V30 6 1 4 7
M  V30 7 2 5 8
M  V30 8 2 6 9
M  V30 9 1 6 10
M  V30 10 2 7 11
M  V30 11 1 11 12
M  V30 12 2 12 13
M  V30 13 1 12 14
M  V30 14 1 14 15
M  V30 15 1 15 16
M  V30 16 2 16 17
M  V30 17 1 16 18
M  V30 18 1 18 19
M  V30 19 2 19 20
M  V30 20 1 19 21
M  V30 21 1 20 22
M  V30 22 2 21 23
M  V30 23 2 22 24
M  V30 24 1 8 11
M  V30 25 1 23 24
M  V30 END BOND
M  V30 END CTAB
M  END
>  <Structure No>
789

>  <Catalog ID>
Z31790767

>  <MW (desalted)>
346.361

>  <ClogP>
1.985

>  <HBD>
2

>  <TPSA>
114.230

>  <RotBonds>
6

>  <Target>
ATM

>  <fromRegid>


>  <Similarity>


$$$$
Compound 790
Actelion Java MolfileCreator 2.0

  0  0  0  0  0  0              0 V3000
M  V30 BEGIN CTAB
M  V30 COUNTS 34 37 0 0 0
M  V30 BEGIN ATOM
M  V30 1 S 0.0 0.0 0.0 0
M  V30 2 O -0.7582 -1.2913 0.0 0
M  V30 3 O 0.7463 1.315 0.0 0
M  V30 4 N -1.315 0.7582 0.0 0
M  V30 5 C 1.2913 -0.7345 0.0 0
M  V30 6 C -2.6301 0.0236 0.0 0
M  V30 7 C 2.5827 0.0236 0.0 0
M  V30 8 C 1.2795 -2.2273 0.0 0
M  V30 9 C -3.9452 0.7819 0.0 0
M  V30 10 C -2.642 -1.469 0.0 0
M  V30 11 C 3.8741 -0.7108 0.0 0
M  V30 12 C 2.5709 -2.9618 0.0 0
M  V30 13 C -5.2603 0.0473 0.0 0
M  V30 14 C -3.957 -2.2154 0.0 0
M  V30 15 C 3.8623 -2.2036 0.0 0
M  V30 16 C -5.2721 -1.4454 0.0 0
M  V30 17 C 5.1536 -2.9381 0.0 0
M  V30 18 F -6.5872 -2.1917 0.0 0
M  V30 19 O 5.1418 -4.4309 0.0 0
M  V30 20 N 6.445 -2.1799 0.0 0
M  V30 21 C 7.7364 -2.9145 0.0 0
M  V30 22 C 9.0278 -2.1562 0.0 0
M  V30 23 C 10.3192 -2.8908 0.0 0
M  V30 24 C 9.0159 -0.6397 0.0 0
M  V30 25 C 11.6106 -2.1325 0.0 0
M  V30 26 C 10.3073 0.1184 0.0 0
M  V30 27 C 11.5987 -0.616 0.0 0
M  V30 28 C 12.9019 -2.8671 0.0 0
M  V30 29 N 12.8901 -4.3599 0.0 0
M  V30 30 C 11.658 -5.2366 0.0 0
M  V30 31 C 14.0986 -5.2366 0.0 0
M  V30 32 O 10.2126 -4.7627 0.0 0
M  V30 33 C 12.1082 -6.6583 0.0 0
M  V30 34 C 13.6247 -6.6583 0.0 0
M  V30 END ATOM
M  V30 BEGIN BOND
M  V30 1 2 1 2
M  V30 2 2 1 3
M  V30 3 1 1 4
M  V30 4 1 1 5
M  V30 5 1 4 6
M  V30 6 2 5 7
M  V30 7 1 5 8
M  V30 8 2 6 9
M  V30 9 1 6 10
M  V30 10 1 7 11
M  V30 11 2 8 12
M  V30 12 1 9 13
M  V30 13 2 10 14
M  V30 14 2 11 15
M  V30 15 2 13 16
M  V30 16 1 15 17
M  V30 17 1 16 18
M  V30 18 2 17 19
M  V30 19 1 17 20
M  V30 20 1 20 21
M  V30 21 1 21 22
M  V30 22 2 22 23
M  V30 23 1 22 24
M  V30 24 1 23 25
M  V30 25 2 24 26
M  V30 26 2 25 27
M  V30 27 1 25 28
M  V30 28 1 28 29
M  V30 29 1 29 30
M  V30 30 1 29 31
M  V30 31 2 30 32
M  V30 32 1 30 33
M  V30 33 1 31 34
M  V30 34 1 12 15
M  V30 35 1 14 16
M  V30 36 1 26 27
M  V30 37 1 33 34
M  V30 END BOND
M  V30 END CTAB
M  END
>  <Structure No>
790

>  <Catalog ID>
Z384600138

>  <MW (desalted)>
481.539

>  <ClogP>
2.975

>  <HBD>
2

>  <TPSA>
95.580

>  <RotBonds>
7

>  <Target>
parp2

>  <fromRegid>


>  <Similarity>


$$$$
Compound 791
Actelion Java MolfileCreator 2.0

  0  0  0  0  0  0              0 V3000
M  V30 BEGIN CTAB
M  V30 COUNTS 27 29 0 0 0
M  V30 BEGIN ATOM
M  V30 1 O 0.0 0.0 0.0 0
M  V30 2 C 0.4736 1.4208 0.0 0
M  V30 3 N -0.5198 2.5644 0.0 0
M  V30 4 C 1.9291 1.7096 0.0 0
M  V30 5 C -0.0462 3.9852 0.0 0
M  V30 6 C 2.4027 3.1304 0.0 0
M  V30 7 C 2.8994 0.5891 0.0 0
M  V30 8 N 1.4092 4.274 0.0 0
M  V30 9 C -1.0396 5.1288 0.0 0
M  V30 10 C 3.8582 3.4192 0.0 0
M  V30 11 C 4.3549 0.8779 0.0 0
M  V30 12 C -2.5182 4.8631 0.0 0
M  V30 13 C 4.8285 2.2987 0.0 0
M  V30 14 C -3.5116 6.0067 0.0 0
M  V30 15 C -4.9902 5.7411 0.0 0
M  V30 16 O -5.4869 4.3433 0.0 0
M  V30 17 N -5.9836 6.8847 0.0 0
M  V30 18 C -7.4622 6.619 0.0 0 CFG=2
M  V30 19 C -8.4557 7.7626 0.0 0
M  V30 20 C -7.9589 5.2212 0.0 0
M  V30 21 C -9.9343 7.4969 0.0 0
M  V30 22 C -7.982 9.1834 0.0 0
M  V30 23 C -9.4375 4.9555 0.0 0
M  V30 24 C -10.9277 8.6405 0.0 0
M  V30 25 C -8.9755 10.327 0.0 0
M  V30 26 C -10.4541 10.0613 0.0 0
M  V30 27 C -11.4475 11.2049 0.0 0
M  V30 END ATOM
M  V30 BEGIN BOND
M  V30 1 2 1 2
M  V30 2 1 2 3
M  V30 3 1 2 4
M  V30 4 1 3 5
M  V30 5 2 4 6
M  V30 6 1 4 7
M  V30 7 2 5 8
M  V30 8 1 5 9
M  V30 9 1 6 10
M  V30 10 2 7 11
M  V30 11 1 9 12
M  V30 12 2 10 13
M  V30 13 1 12 14
M  V30 14 1 14 15
M  V30 15 2 15 16
M  V30 16 1 15 17
M  V30 17 1 18 17 CFG=1
M  V30 18 1 18 19
M  V30 19 1 18 20
M  V30 20 2 19 21
M  V30 21 1 19 22
M  V30 22 1 20 23
M  V30 23 1 21 24
M  V30 24 2 22 25
M  V30 25 2 24 26
M  V30 26 1 26 27
M  V30 27 1 6 8
M  V30 28 1 11 13
M  V30 29 1 25 26
M  V30 END BOND
M  V30 BEGIN COLLECTION
M  V30 MDLV30/STERAC1 ATOMS=(1 18)
M  V30 END COLLECTION
M  V30 END CTAB
M  END
>  <Structure No>
791

>  <Catalog ID>
Z28877949

>  <MW (desalted)>
363.453

>  <ClogP>
2.926

>  <HBD>
2

>  <TPSA>
70.560

>  <RotBonds>
7

>  <Target>
Poly [ADP-ribose] polymerase-1

>  <fromRegid>
CHEMBL3092537

>  <Similarity>
0.94

$$$$
Compound 792
Actelion Java MolfileCreator 2.0

  0  0  0  0  0  0              0 V3000
M  V30 BEGIN CTAB
M  V30 COUNTS 25 26 0 0 0
M  V30 BEGIN ATOM
M  V30 1 O 0.0 0.0 0.0 0
M  V30 2 C -1.3129 -0.7451 0.0 0
M  V30 3 N -1.3247 -2.2355 0.0 0
M  V30 4 C -2.6258 0.0236 0.0 0
M  V30 5 C -0.0354 -2.9688 0.0 0
M  V30 6 C -2.6376 1.5376 0.0 0
M  V30 7 C -3.9387 -0.7215 0.0 0
M  V30 8 C -0.0473 -4.4591 0.0 0
M  V30 9 O -1.3484 2.2946 0.0 0
M  V30 10 C -3.9505 2.2946 0.0 0
M  V30 11 C -5.2516 0.0473 0.0 0
M  V30 12 C -0.0591 1.5613 0.0 0
M  V30 13 C -5.2634 1.5613 0.0 0
M  V30 14 C -3.9624 3.8086 0.0 0
M  V30 15 C 1.2301 2.3183 0.0 0
M  V30 16 O 1.2182 3.8323 0.0 0
M  V30 17 N 2.5193 1.5849 0.0 0
M  V30 18 C 3.8086 2.3419 0.0 0 CFG=2
M  V30 19 C 5.0979 1.6086 0.0 0
M  V30 20 C 3.7968 3.8559 0.0 0
M  V30 21 C 6.3871 2.3656 0.0 0
M  V30 22 C 5.086 0.1182 0.0 0
M  V30 23 C 7.6764 1.6322 0.0 0
M  V30 24 C 6.3753 -0.6268 0.0 0
M  V30 25 C 7.6646 0.1419 0.0 0
M  V30 END ATOM
M  V30 BEGIN BOND
M  V30 1 2 1 2
M  V30 2 1 2 3
M  V30 3 1 2 4
M  V30 4 1 3 5
M  V30 5 2 4 6
M  V30 6 1 4 7
M  V30 7 1 5 8
M  V30 8 1 6 9
M  V30 9 1 6 10
M  V30 10 2 7 11
M  V30 11 1 9 12
M  V30 12 2 10 13
M  V30 13 1 10 14
M  V30 14 1 12 15
M  V30 15 2 15 16
M  V30 16 1 15 17
M  V30 17 1 18 17 CFG=1
M  V30 18 1 18 19
M  V30 19 1 18 20
M  V30 20 2 19 21
M  V30 21 1 19 22
M  V30 22 1 21 23
M  V30 23 2 22 24
M  V30 24 2 23 25
M  V30 25 1 11 13
M  V30 26 1 24 25
M  V30 END BOND
M  V30 BEGIN COLLECTION
M  V30 MDLV30/STERAC1 ATOMS=(1 18)
M  V30 END COLLECTION
M  V30 END CTAB
M  END
>  <Structure No>
792

>  <Catalog ID>
Z1002384298

>  <MW (desalted)>
340.416

>  <ClogP>
2.972

>  <HBD>
2

>  <TPSA>
67.430

>  <RotBonds>
7

>  <Target>
Poly [ADP-ribose] polymerase-1

>  <fromRegid>
CHEMBL3105430

>  <Similarity>
0.96

$$$$
Compound 793
Actelion Java MolfileCreator 2.0

  0  0  0  0  0  0              0 V3000
M  V30 BEGIN CTAB
M  V30 COUNTS 19 20 0 0 0
M  V30 BEGIN ATOM
M  V30 1 S 0.0 0.0 0.0 0
M  V30 2 C 1.288 0.7681 0.0 0
M  V30 3 C -0.0118 -1.4889 0.0 0
M  V30 4 C 1.2762 2.2807 0.0 0 CFG=1
M  V30 5 O -0.2363 2.2925 0.0 0
M  V30 6 C 1.2644 3.7933 0.0 0
M  V30 7 C 2.7652 2.2925 0.0 0
M  V30 8 N 2.5525 4.5496 0.0 0
M  V30 9 C 2.5407 6.0622 0.0 0
M  V30 10 C 3.8405 3.8051 0.0 0
M  V30 11 O 1.2289 6.8185 0.0 0
M  V30 12 N 3.8287 6.8185 0.0 0
M  V30 13 O 3.8287 2.3161 0.0 0
M  V30 14 C 5.1286 4.5614 0.0 0
M  V30 15 C 5.1168 6.0858 0.0 0
M  V30 16 C 6.4167 3.8169 0.0 0
M  V30 17 C 6.4049 6.8421 0.0 0
M  V30 18 C 7.7048 4.5732 0.0 0
M  V30 19 C 7.693 6.1095 0.0 0
M  V30 END ATOM
M  V30 BEGIN BOND
M  V30 1 1 1 2
M  V30 2 1 1 3
M  V30 3 1 2 4
M  V30 4 1 4 5
M  V30 5 1 4 6 CFG=1
M  V30 6 1 4 7
M  V30 7 1 6 8
M  V30 8 1 8 9
M  V30 9 1 8 10
M  V30 10 2 9 11
M  V30 11 1 9 12
M  V30 12 2 10 13
M  V30 13 1 10 14
M  V30 14 1 12 15
M  V30 15 1 14 16
M  V30 16 1 15 17
M  V30 17 2 16 18
M  V30 18 2 17 19
M  V30 19 2 14 15
M  V30 20 1 18 19
M  V30 END BOND
M  V30 BEGIN COLLECTION
M  V30 MDLV30/STERAC1 ATOMS=(1 4)
M  V30 END COLLECTION
M  V30 END CTAB
M  END
>  <Structure No>
793

>  <Catalog ID>
Z1503960629

>  <MW (desalted)>
280.343

>  <ClogP>
1.676

>  <HBD>
2

>  <TPSA>
69.640

>  <RotBonds>
4

>  <Target>
CHK1

>  <fromRegid>


>  <Similarity>


$$$$
Compound 794
Actelion Java MolfileCreator 2.0

  0  0  0  0  0  0              0 V3000
M  V30 BEGIN CTAB
M  V30 COUNTS 23 25 0 0 0
M  V30 BEGIN ATOM
M  V30 1 S 0.0 0.0 0.0 0
M  V30 2 O 0.7331 -1.2889 0.0 0
M  V30 3 O -0.7686 1.3125 0.0 0
M  V30 4 N 1.2889 0.7686 0.0 0
M  V30 5 C -1.3125 -0.7331 0.0 0
M  V30 6 C 1.2771 2.2822 0.0 0 CFG=2
M  V30 7 C 2.566 3.0508 0.0 0
M  V30 8 C -0.0354 3.0508 0.0 0
M  V30 9 N 2.5542 4.5644 0.0 0
M  V30 10 C -0.0473 4.5644 0.0 0
M  V30 11 C 1.2416 5.3331 0.0 0
M  V30 12 C 3.8431 5.3331 0.0 0
M  V30 13 C 5.132 4.5881 0.0 0
M  V30 14 N 6.421 5.3567 0.0 0
M  V30 15 N 5.1202 3.0981 0.0 0
M  V30 16 C 7.7099 4.6117 0.0 0
M  V30 17 C 6.4092 2.3531 0.0 0
M  V30 18 C 7.6981 3.1218 0.0 0
M  V30 19 C 8.9988 5.3804 0.0 0
M  V30 20 O 6.3973 0.8632 0.0 0
M  V30 21 C 8.987 2.3768 0.0 0
M  V30 22 C 10.2878 4.6354 0.0 0
M  V30 23 C 10.276 3.1454 0.0 0
M  V30 END ATOM
M  V30 BEGIN BOND
M  V30 1 2 1 2
M  V30 2 2 1 3
M  V30 3 1 1 4
M  V30 4 1 1 5
M  V30 5 1 6 4 CFG=1
M  V30 6 1 6 7
M  V30 7 1 6 8
M  V30 8 1 7 9
M  V30 9 1 8 10
M  V30 10 1 9 11
M  V30 11 1 9 12
M  V30 12 1 12 13
M  V30 13 2 13 14
M  V30 14 1 13 15
M  V30 15 1 14 16
M  V30 16 1 15 17
M  V30 17 2 16 18
M  V30 18 1 16 19
M  V30 19 2 17 20
M  V30 20 1 18 21
M  V30 21 2 19 22
M  V30 22 2 21 23
M  V30 23 1 10 11
M  V30 24 1 17 18
M  V30 25 1 22 23
M  V30 END BOND
M  V30 BEGIN COLLECTION
M  V30 MDLV30/STERAC1 ATOMS=(1 6)
M  V30 END COLLECTION
M  V30 END CTAB
M  END
>  <Structure No>
794

>  <Catalog ID>
Z1002477940

>  <MW (desalted)>
336.409

>  <ClogP>
0.171

>  <HBD>
2

>  <TPSA>
90.870

>  <RotBonds>
3

>  <Target>
parp1

>  <fromRegid>


>  <Similarity>


$$$$
Compound 795
Actelion Java MolfileCreator 2.0

  0  0  0  0  0  0              0 V3000
M  V30 BEGIN CTAB
M  V30 COUNTS 24 26 0 0 0
M  V30 BEGIN ATOM
M  V30 1 Cl 0.0 0.0 0.0 0
M  V30 2 C 1.2941 0.7598 0.0 0
M  V30 3 C 2.5883 0.0237 0.0 0
M  V30 4 C 1.2823 2.2796 0.0 0
M  V30 5 C 3.8825 0.7836 0.0 0
M  V30 6 C 2.5765 3.0514 0.0 0
M  V30 7 C 3.8707 2.3034 0.0 0
M  V30 8 S 5.1649 3.0752 0.0 0
M  V30 9 C 6.4591 2.3271 0.0 0
M  V30 10 C 7.7533 3.0989 0.0 0
M  V30 11 N 9.0475 2.3509 0.0 0
M  V30 12 C 10.3416 3.1226 0.0 0
M  V30 13 C 9.0356 0.8548 0.0 0
M  V30 14 C 11.6358 2.3746 0.0 0
M  V30 15 N 12.93 3.1464 0.0 0
M  V30 16 N 11.624 0.8786 0.0 0
M  V30 17 C 14.2242 2.3984 0.0 0
M  V30 18 C 12.9182 0.1424 0.0 0
M  V30 19 C 14.2124 0.9023 0.0 0
M  V30 20 C 15.5184 3.1701 0.0 0
M  V30 21 O 12.9063 -1.3535 0.0 0
M  V30 22 C 15.5066 0.1662 0.0 0
M  V30 23 C 16.8126 2.4221 0.0 0
M  V30 24 C 16.8008 0.9261 0.0 0
M  V30 END ATOM
M  V30 BEGIN BOND
M  V30 1 1 1 2
M  V30 2 2 2 3
M  V30 3 1 2 4
M  V30 4 1 3 5
M  V30 5 2 4 6
M  V30 6 2 5 7
M  V30 7 1 7 8
M  V30 8 1 8 9
M  V30 9 1 9 10
M  V30 10 1 10 11
M  V30 11 1 11 12
M  V30 12 1 11 13
M  V30 13 1 12 14
M  V30 14 2 14 15
M  V30 15 1 14 16
M  V30 16 1 15 17
M  V30 17 1 16 18
M  V30 18 2 17 19
M  V30 19 1 17 20
M  V30 20 2 18 21
M  V30 21 1 19 22
M  V30 22 2 20 23
M  V30 23 2 22 24
M  V30 24 1 6 7
M  V30 25 1 18 19
M  V30 26 1 23 24
M  V30 END BOND
M  V30 END CTAB
M  END
>  <Structure No>
795

>  <Catalog ID>
Z46302583

>  <MW (desalted)>
359.873

>  <ClogP>
3.422

>  <HBD>
1

>  <TPSA>
44.700

>  <RotBonds>
6

>  <Target>
parp3

>  <fromRegid>


>  <Similarity>


$$$$
Compound 796
Actelion Java MolfileCreator 2.0

  0  0  0  0  0  0              0 V3000
M  V30 BEGIN CTAB
M  V30 COUNTS 27 29 0 0 0
M  V30 BEGIN ATOM
M  V30 1 Cl 0.0 0.0 0.0 0
M  V30 2 C -1.4438 -0.4497 0.0 0
M  V30 3 C -2.5681 0.568 0.0 0
M  V30 4 C -1.7633 -1.9053 0.0 0
M  V30 5 N -2.2722 2.0473 0.0 0
M  V30 6 C -4.0119 0.1183 0.0 0
M  V30 7 C -3.2071 -2.355 0.0 0
M  V30 8 C -0.852 2.5207 0.0 0
M  V30 9 C -4.3314 -1.3373 0.0 0
M  V30 10 Cl -3.5267 -3.8107 0.0 0
M  V30 11 O 0.2485 1.5266 0.0 0
M  V30 12 C -0.5562 4.0 0.0 0 CFG=1
M  V30 13 N 0.8047 4.6273 0.0 0
M  V30 14 C -1.574 5.1243 0.0 0
M  V30 15 C 0.639 6.1303 0.0 0
M  V30 16 C 2.0947 3.8817 0.0 0
M  V30 17 C -0.8402 6.438 0.0 0
M  V30 18 C 3.3846 4.6509 0.0 0
M  V30 19 C 4.6746 3.9054 0.0 0
M  V30 20 O 4.6628 2.4142 0.0 0
M  V30 21 N 5.9646 4.6746 0.0 0
M  V30 22 C 7.2546 3.929 0.0 0
M  V30 23 C 8.5445 4.6983 0.0 0
M  V30 24 C 7.2427 2.4379 0.0 0
M  V30 25 C 9.8345 3.9527 0.0 0
M  V30 26 C 8.5327 1.7041 0.0 0
M  V30 27 C 9.8227 2.4615 0.0 0
M  V30 END ATOM
M  V30 BEGIN BOND
M  V30 1 1 1 2
M  V30 2 2 2 3
M  V30 3 1 2 4
M  V30 4 1 3 5
M  V30 5 1 3 6
M  V30 6 2 4 7
M  V30 7 1 5 8
M  V30 8 2 6 9
M  V30 9 1 7 10
M  V30 10 2 8 11
M  V30 11 1 12 8 CFG=3
M  V30 12 1 12 13
M  V30 13 1 12 14
M  V30 14 1 13 15
M  V30 15 1 13 16
M  V30 16 1 14 17
M  V30 17 1 16 18
M  V30 18 1 18 19
M  V30 19 2 19 20
M  V30 20 1 19 21
M  V30 21 1 21 22
M  V30 22 2 22 23
M  V30 23 1 22 24
M  V30 24 1 23 25
M  V30 25 2 24 26
M  V30 26 2 25 27
M  V30 27 1 7 9
M  V30 28 1 15 17
M  V30 29 1 26 27
M  V30 END BOND
M  V30 BEGIN COLLECTION
M  V30 MDLV30/STERAC1 ATOMS=(1 12)
M  V30 END COLLECTION
M  V30 END CTAB
M  END
>  <Structure No>
796

>  <Catalog ID>
Z369065574

>  <MW (desalted)>
406.306

>  <ClogP>
4.015

>  <HBD>
2

>  <TPSA>
61.440

>  <RotBonds>
6

>  <Target>
ATM

>  <fromRegid>


>  <Similarity>


$$$$
Compound 797
Actelion Java MolfileCreator 2.0

  0  0  0  0  0  0              0 V3000
M  V30 BEGIN CTAB
M  V30 COUNTS 20 21 0 0 0
M  V30 BEGIN ATOM
M  V30 1 O 0.0 0.0 0.0 0
M  V30 2 C -0.0118 -1.4907 0.0 0
M  V30 3 N -1.325 -2.236 0.0 0
M  V30 4 N 1.2777 -2.236 0.0 0
M  V30 5 C -1.3369 -3.7268 0.0 0
M  V30 6 C -2.6383 -1.4788 0.0 0
M  V30 7 C 1.2659 -3.7268 0.0 0
M  V30 8 O -2.6501 -4.4603 0.0 0
M  V30 9 C -0.0473 -4.4603 0.0 0
M  V30 10 C -3.9516 -2.2242 0.0 0
M  V30 11 C 2.5555 -4.4603 0.0 0
M  V30 12 C -0.0591 -5.951 0.0 0
M  V30 13 N -5.2648 -1.467 0.0 0
M  V30 14 C 2.5436 -5.951 0.0 0
M  V30 15 C 1.2304 -6.6845 0.0 0
M  V30 16 C -6.5781 -2.2124 0.0 0
M  V30 17 O -6.5899 -3.7031 0.0 0
M  V30 18 C -7.8913 -1.4552 0.0 0
M  V30 19 C -9.2046 -2.2005 0.0 0
M  V30 20 C -7.9032 0.0591 0.0 0
M  V30 END ATOM
M  V30 BEGIN BOND
M  V30 1 2 1 2
M  V30 2 1 2 3
M  V30 3 1 2 4
M  V30 4 1 3 5
M  V30 5 1 3 6
M  V30 6 1 4 7
M  V30 7 2 5 8
M  V30 8 1 5 9
M  V30 9 1 6 10
M  V30 10 1 7 11
M  V30 11 1 9 12
M  V30 12 1 10 13
M  V30 13 2 11 14
M  V30 14 2 12 15
M  V30 15 1 13 16
M  V30 16 2 16 17
M  V30 17 1 16 18
M  V30 18 1 18 19
M  V30 19 1 18 20
M  V30 20 2 7 9
M  V30 21 1 14 15
M  V30 END BOND
M  V30 END CTAB
M  END
>  <Structure No>
797

>  <Catalog ID>
Z278333554

>  <MW (desalted)>
275.303

>  <ClogP>
1.487

>  <HBD>
2

>  <TPSA>
78.510

>  <RotBonds>
4

>  <Target>
CHK1

>  <fromRegid>


>  <Similarity>


$$$$
Compound 798
Actelion Java MolfileCreator 2.0

  0  0  0  0  0  0              0 V3000
M  V30 BEGIN CTAB
M  V30 COUNTS 23 25 0 0 0
M  V30 BEGIN ATOM
M  V30 1 Cl 0.0 0.0 0.0 0
M  V30 2 C -0.0118 1.5158 0.0 0
M  V30 3 C -1.3263 2.2856 0.0 0
M  V30 4 C 1.2789 2.2856 0.0 0
M  V30 5 F -2.6408 1.5395 0.0 0
M  V30 6 C -1.3382 3.8014 0.0 0
M  V30 7 C 1.2671 3.8014 0.0 0
M  V30 8 C -0.0473 4.5593 0.0 0
M  V30 9 C 2.5579 4.5593 0.0 0
M  V30 10 N 3.8488 3.8251 0.0 0
M  V30 11 C 5.1396 4.583 0.0 0
M  V30 12 O 5.1278 6.0989 0.0 0
M  V30 13 C 6.4305 3.8488 0.0 0
M  V30 14 N 6.4186 2.3566 0.0 0
M  V30 15 C 7.7213 4.6067 0.0 0
M  V30 16 C 7.7095 1.6105 0.0 0
M  V30 17 C 9.0121 3.8725 0.0 0
M  V30 18 O 7.6976 0.1184 0.0 0
M  V30 19 C 9.0003 2.3803 0.0 0
M  V30 20 C 10.303 4.6304 0.0 0
M  V30 21 C 10.2911 1.6342 0.0 0
M  V30 22 C 11.5938 3.8962 0.0 0
M  V30 23 C 11.582 2.404 0.0 0
M  V30 END ATOM
M  V30 BEGIN BOND
M  V30 1 1 1 2
M  V30 2 2 2 3
M  V30 3 1 2 4
M  V30 4 1 3 5
M  V30 5 1 3 6
M  V30 6 2 4 7
M  V30 7 2 6 8
M  V30 8 1 7 9
M  V30 9 1 9 10
M  V30 10 1 10 11
M  V30 11 2 11 12
M  V30 12 1 11 13
M  V30 13 1 13 14
M  V30 14 2 13 15
M  V30 15 1 14 16
M  V30 16 1 15 17
M  V30 17 2 16 18
M  V30 18 1 16 19
M  V30 19 1 17 20
M  V30 20 1 19 21
M  V30 21 2 20 22
M  V30 22 2 21 23
M  V30 23 1 7 8
M  V30 24 2 17 19
M  V30 25 1 22 23
M  V30 END BOND
M  V30 END CTAB
M  END
>  <Structure No>
798

>  <Catalog ID>
Z1001840594

>  <MW (desalted)>
330.741

>  <ClogP>
2.939

>  <HBD>
2

>  <TPSA>
58.200

>  <RotBonds>
3

>  <Target>
parp15, Tankyrase1

>  <fromRegid>


>  <Similarity>


$$$$
Compound 799
Actelion Java MolfileCreator 2.0

  0  0  0  0  0  0              0 V3000
M  V30 BEGIN CTAB
M  V30 COUNTS 31 33 0 0 0
M  V30 BEGIN ATOM
M  V30 1 O 0.0 0.0 0.0 0
M  V30 2 C 1.2912 -0.7344 0.0 0
M  V30 3 N 1.2794 -2.2271 0.0 0
M  V30 4 N 2.5825 0.0236 0.0 0
M  V30 5 C 2.5706 -2.9616 0.0 0
M  V30 6 C -0.0355 -2.9616 0.0 0
M  V30 7 C 3.8737 -0.7107 0.0 0
M  V30 8 N 2.8668 -4.4187 0.0 0
M  V30 9 C 3.8619 -2.2034 0.0 0
M  V30 10 C -1.3504 -2.2034 0.0 0
M  V30 11 O 5.165 0.0473 0.0 0
M  V30 12 C 4.3476 -4.5608 0.0 0
M  V30 13 N 4.9636 -3.1985 0.0 0
M  V30 14 C -2.6654 -2.9379 0.0 0
M  V30 15 C 5.0821 -5.8521 0.0 0
M  V30 16 C 6.4207 -2.8786 0.0 0
M  V30 17 C -3.9803 -2.1797 0.0 0
M  V30 18 N 4.3239 -7.1433 0.0 0
M  V30 19 C 6.8709 -1.4334 0.0 0
M  V30 20 C 5.0584 -8.4346 0.0 0
M  V30 21 C 2.8075 -7.1315 0.0 0
M  V30 22 C 6.551 -8.4227 0.0 0
M  V30 23 C 2.0494 -8.4227 0.0 0
M  V30 24 O 7.2973 -7.1078 0.0 0
M  V30 25 N 7.2973 -9.714 0.0 0
M  V30 26 C 0.533 -8.4109 0.0 0
M  V30 27 C -0.225 -9.7022 0.0 0
M  V30 28 C -0.225 -7.0959 0.0 0
M  V30 29 C -1.7414 -9.6903 0.0 0
M  V30 30 C -1.7414 -7.0841 0.0 0
M  V30 31 C -2.4995 -8.3754 0.0 0
M  V30 END ATOM
M  V30 BEGIN BOND
M  V30 1 2 1 2
M  V30 2 1 2 3
M  V30 3 1 2 4
M  V30 4 1 3 5
M  V30 5 1 3 6
M  V30 6 1 4 7
M  V30 7 1 5 8
M  V30 8 2 5 9
M  V30 9 1 6 10
M  V30 10 2 7 11
M  V30 11 2 8 12
M  V30 12 1 9 13
M  V30 13 1 10 14
M  V30 14 1 12 15
M  V30 15 1 13 16
M  V30 16 1 14 17
M  V30 17 1 15 18
M  V30 18 1 16 19
M  V30 19 1 18 20
M  V30 20 1 18 21
M  V30 21 1 20 22
M  V30 22 1 21 23
M  V30 23 2 22 24
M  V30 24 1 22 25
M  V30 25 1 23 26
M  V30 26 1 26 27
M  V30 27 1 26 28
M  V30 28 1 27 29
M  V30 29 1 28 30
M  V30 30 1 29 31
M  V30 31 1 7 9
M  V30 32 1 12 13
M  V30 33 1 30 31
M  V30 END BOND
M  V30 END CTAB
M  END
>  <Structure No>
799

>  <Catalog ID>
Z1003133018

>  <MW (desalted)>
432.560

>  <ClogP>
3.390

>  <HBD>
2

>  <TPSA>
113.560

>  <RotBonds>
11

>  <Target>
CHK1

>  <fromRegid>


>  <Similarity>


$$$$
Compound 800
Actelion Java MolfileCreator 2.0

  0  0  0  0  0  0              0 V3000
M  V30 BEGIN CTAB
M  V30 COUNTS 18 19 0 0 0
M  V30 BEGIN ATOM
M  V30 1 O 0.0 0.0 0.0 0
M  V30 2 C -1.3078 0.754 0.0 0
M  V30 3 N -2.6156 0.0235 0.0 0
M  V30 4 C -1.3195 2.2621 0.0 0
M  V30 5 C -2.6274 -1.4609 0.0 0
M  V30 6 N -3.8527 -2.3328 0.0 0
M  V30 7 C -1.4256 -2.3328 0.0 0
M  V30 8 N -3.405 -3.7466 0.0 0
M  V30 9 C -5.2901 -1.8615 0.0 0
M  V30 10 C -1.8969 -3.7466 0.0 0
M  V30 11 C -5.6082 -0.3888 0.0 0
M  V30 12 C -6.4094 -2.8512 0.0 0
M  V30 13 C -1.025 -4.9484 0.0 0
M  V30 14 C -7.0456 0.0824 0.0 0
M  V30 15 C -4.5125 0.6244 0.0 0
M  V30 16 C -7.8468 -2.3799 0.0 0
M  V30 17 C -8.1649 -0.9072 0.0 0
M  V30 18 C -9.6023 -0.4359 0.0 0
M  V30 END ATOM
M  V30 BEGIN BOND
M  V30 1 2 1 2
M  V30 2 1 2 3
M  V30 3 1 2 4
M  V30 4 1 3 5
M  V30 5 1 5 6
M  V30 6 2 5 7
M  V30 7 1 6 8
M  V30 8 1 6 9
M  V30 9 1 7 10
M  V30 10 2 9 11
M  V30 11 1 9 12
M  V30 12 1 10 13
M  V30 13 1 11 14
M  V30 14 1 11 15
M  V30 15 2 12 16
M  V30 16 2 14 17
M  V30 17 1 17 18
M  V30 18 2 8 10
M  V30 19 1 16 17
M  V30 END BOND
M  V30 END CTAB
M  END
>  <Structure No>
800

>  <Catalog ID>
Z203671472

>  <MW (desalted)>
243.304

>  <ClogP>
2.889

>  <HBD>
1

>  <TPSA>
46.920

>  <RotBonds>
2

>  <Target>
Poly [ADP-ribose] polymerase-1

>  <fromRegid>
CHEMBL551657

>  <Similarity>
0.87

$$$$
Compound 801
Actelion Java MolfileCreator 2.0

  0  0  0  0  0  0              0 V3000
M  V30 BEGIN CTAB
M  V30 COUNTS 25 27 0 0 0
M  V30 BEGIN ATOM
M  V30 1 O 0.0 0.0 0.0 0
M  V30 2 C -0.0117 1.5068 0.0 0
M  V30 3 N -1.3185 2.2721 0.0 0
M  V30 4 C 1.2714 2.2721 0.0 0
M  V30 5 C -1.3303 3.779 0.0 0
M  V30 6 C 1.2596 3.779 0.0 0
M  V30 7 C 2.5546 1.5304 0.0 0
M  V30 8 N -0.047 4.5324 0.0 0
M  V30 9 C -2.637 4.5324 0.0 0
M  V30 10 C 2.5428 4.5324 0.0 0
M  V30 11 C 3.8378 2.2956 0.0 0
M  V30 12 C -3.9438 3.8025 0.0 0
M  V30 13 C 3.8261 3.8025 0.0 0
M  V30 14 C -5.2505 4.556 0.0 0
M  V30 15 C -6.5573 3.8261 0.0 0
M  V30 16 O -6.5691 2.3427 0.0 0
M  V30 17 N -7.8641 4.5795 0.0 0
M  V30 18 C -9.1708 3.8496 0.0 0
M  V30 19 C -7.8758 6.0864 0.0 0
M  V30 20 C -10.4776 4.6031 0.0 0 CFG=1
M  V30 21 C -9.1826 6.8516 0.0 0
M  V30 22 C -11.7844 3.8731 0.0 0
M  V30 23 C -10.4894 6.1099 0.0 0
M  V30 24 O -11.7961 2.3898 0.0 0
M  V30 25 O -13.0911 4.6266 0.0 0
M  V30 END ATOM
M  V30 BEGIN BOND
M  V30 1 2 1 2
M  V30 2 1 2 3
M  V30 3 1 2 4
M  V30 4 1 3 5
M  V30 5 2 4 6
M  V30 6 1 4 7
M  V30 7 2 5 8
M  V30 8 1 5 9
M  V30 9 1 6 10
M  V30 10 2 7 11
M  V30 11 1 9 12
M  V30 12 2 10 13
M  V30 13 1 12 14
M  V30 14 1 14 15
M  V30 15 2 15 16
M  V30 16 1 15 17
M  V30 17 1 17 18
M  V30 18 1 17 19
M  V30 19 1 18 20
M  V30 20 1 19 21
M  V30 21 1 20 22 CFG=1
M  V30 22 1 20 23
M  V30 23 2 22 24
M  V30 24 1 22 25
M  V30 25 1 6 8
M  V30 26 1 11 13
M  V30 27 1 21 23
M  V30 END BOND
M  V30 BEGIN COLLECTION
M  V30 MDLV30/STERAC1 ATOMS=(1 20)
M  V30 END COLLECTION
M  V30 END CTAB
M  END
>  <Structure No>
801

>  <Catalog ID>
Z1443622248

>  <MW (desalted)>
343.377

>  <ClogP>
0.177

>  <HBD>
2

>  <TPSA>
99.070

>  <RotBonds>
5

>  <Target>
Tankyrase1, parp2

>  <fromRegid>


>  <Similarity>


$$$$
Compound 802
Actelion Java MolfileCreator 2.0

  0  0  0  0  0  0              0 V3000
M  V30 BEGIN CTAB
M  V30 COUNTS 20 22 0 0 0
M  V30 BEGIN ATOM
M  V30 1 S 0.0 0.0 0.0 0
M  V30 2 C 1.4237 -0.4508 0.0 0
M  V30 3 C -0.9017 -1.2102 0.0 0
M  V30 4 C 2.717 0.3084 0.0 0
M  V30 5 C 1.4119 -1.9458 0.0 0
M  V30 6 C -0.0237 -2.4204 0.0 0
M  V30 7 O 2.7051 1.8271 0.0 0
M  V30 8 N 4.0102 -0.4271 0.0 0
M  V30 9 N 2.7051 -2.6814 0.0 0
M  V30 10 C 3.9984 -1.922 0.0 0
M  V30 11 C 5.2916 -2.6577 0.0 0
M  V30 12 N 6.5849 -1.8983 0.0 0
M  V30 13 C 7.8781 -2.6339 0.0 0
M  V30 14 C 6.573 -0.3796 0.0 0
M  V30 15 C 9.1714 -1.8746 0.0 0
M  V30 16 C 7.8663 0.3796 0.0 0
M  V30 17 N 9.1595 -0.3559 0.0 0
M  V30 18 C 10.4528 0.4034 0.0 0
M  V30 19 O 11.746 -0.3322 0.0 0
M  V30 20 C 10.4409 1.922 0.0 0
M  V30 END ATOM
M  V30 BEGIN BOND
M  V30 1 1 1 2
M  V30 2 1 1 3
M  V30 3 1 2 4
M  V30 4 2 2 5
M  V30 5 2 3 6
M  V30 6 2 4 7
M  V30 7 1 4 8
M  V30 8 1 5 9
M  V30 9 1 8 10
M  V30 10 1 10 11
M  V30 11 1 11 12
M  V30 12 1 12 13
M  V30 13 1 12 14
M  V30 14 1 13 15
M  V30 15 1 14 16
M  V30 16 1 15 17
M  V30 17 1 17 18
M  V30 18 2 18 19
M  V30 19 1 18 20
M  V30 20 1 5 6
M  V30 21 2 9 10
M  V30 22 1 16 17
M  V30 END BOND
M  V30 END CTAB
M  END
>  <Structure No>
802

>  <Catalog ID>
Z44499719

>  <MW (desalted)>
292.357

>  <ClogP>
-0.548

>  <HBD>
1

>  <TPSA>
65.010

>  <RotBonds>
2

>  <Target>
parp2

>  <fromRegid>


>  <Similarity>


$$$$
Compound 803
Actelion Java MolfileCreator 2.0

  0  0  0  0  0  0              0 V3000
M  V30 BEGIN CTAB
M  V30 COUNTS 22 23 0 0 0
M  V30 BEGIN ATOM
M  V30 1 O 0.0 0.0 0.0 0
M  V30 2 C -0.0118 -1.4913 0.0 0
M  V30 3 N -1.3256 -2.2251 0.0 0
M  V30 4 N 1.2782 -2.2251 0.0 0
M  V30 5 C -1.3374 -3.7164 0.0 0
M  V30 6 C -2.6394 -1.4676 0.0 0
M  V30 7 C 1.2664 -3.7164 0.0 0
M  V30 8 C 2.5683 -1.4676 0.0 0
M  V30 9 O -2.6512 -4.4621 0.0 0
M  V30 10 C -0.0473 -4.4621 0.0 0
M  V30 11 C -3.9531 -2.2014 0.0 0
M  V30 12 N 2.3671 -4.7106 0.0 0
M  V30 13 N 0.2485 -5.9179 0.0 0
M  V30 14 C -5.2669 -1.4439 0.0 0
M  V30 15 C 1.7398 -6.0718 0.0 0
M  V30 16 C -0.7693 -7.0186 0.0 0
M  V30 17 N -6.5807 -2.1778 0.0 0
M  V30 18 C -7.8945 -1.4203 0.0 0
M  V30 19 C -6.5925 -3.6691 0.0 0
M  V30 20 C -9.2083 -2.1541 0.0 0
M  V30 21 C -10.5221 -1.3966 0.0 0
M  V30 22 C -9.2201 -3.6454 0.0 0
M  V30 END ATOM
M  V30 BEGIN BOND
M  V30 1 2 1 2
M  V30 2 1 2 3
M  V30 3 1 2 4
M  V30 4 1 3 5
M  V30 5 1 3 6
M  V30 6 1 4 7
M  V30 7 1 4 8
M  V30 8 2 5 9
M  V30 9 1 5 10
M  V30 10 1 6 11
M  V30 11 1 7 12
M  V30 12 1 10 13
M  V30 13 1 11 14
M  V30 14 2 12 15
M  V30 15 1 13 16
M  V30 16 1 14 17
M  V30 17 1 17 18
M  V30 18 1 17 19
M  V30 19 1 18 20
M  V30 20 1 20 21
M  V30 21 1 20 22
M  V30 22 2 7 10
M  V30 23 1 13 15
M  V30 END BOND
M  V30 END CTAB
M  END
>  <Structure No>
803

>  <Catalog ID>
Z909880602

>  <MW (desalted)>
307.391

>  <ClogP>
2.077

>  <HBD>
0

>  <TPSA>
61.680

>  <RotBonds>
6

>  <Target>
Serine-protein kinase ATM

>  <fromRegid>
CHEMBL113

>  <Similarity>
0.92

$$$$
Compound 804
Actelion Java MolfileCreator 2.0

  0  0  0  0  0  0              0 V3000
M  V30 BEGIN CTAB
M  V30 COUNTS 24 26 0 0 0
M  V30 BEGIN ATOM
M  V30 1 O 0.0 0.0 0.0 0
M  V30 2 C 0.6012 1.3792 0.0 0
M  V30 3 N 2.0747 1.5442 0.0 0
M  V30 4 C -0.2947 2.6052 0.0 0
M  V30 5 C 2.9471 0.3418 0.0 0
M  V30 6 C 2.6759 2.9235 0.0 0
M  V30 7 N -1.8036 2.617 0.0 0
M  V30 8 C 0.1532 4.0434 0.0 0
M  V30 9 C 4.4207 0.5069 0.0 0 CFG=1
M  V30 10 C 4.1495 3.0885 0.0 0
M  V30 11 N -2.2751 4.0552 0.0 0
M  V30 12 C -1.0727 4.9393 0.0 0
M  V30 13 C 5.293 -0.6955 0.0 0
M  V30 14 C 5.0219 1.8861 0.0 0
M  V30 15 C -1.0845 6.4483 0.0 0
M  V30 16 O 6.7666 -0.5304 0.0 0
M  V30 17 O 4.6682 -2.0512 0.0 0
M  V30 18 C 0.2004 7.2027 0.0 0
M  V30 19 C -2.393 7.2027 0.0 0
M  V30 20 C 0.1886 8.7117 0.0 0
M  V30 21 C -2.4048 8.7117 0.0 0
M  V30 22 C -1.1199 9.4661 0.0 0
M  V30 23 O -1.1316 10.9751 0.0 0
M  V30 24 C -2.4402 11.7295 0.0 0
M  V30 END ATOM
M  V30 BEGIN BOND
M  V30 1 2 1 2
M  V30 2 1 2 3
M  V30 3 1 2 4
M  V30 4 1 3 5
M  V30 5 1 3 6
M  V30 6 1 4 7
M  V30 7 2 4 8
M  V30 8 1 5 9
M  V30 9 1 6 10
M  V30 10 1 7 11
M  V30 11 1 8 12
M  V30 12 1 9 13 CFG=3
M  V30 13 1 9 14
M  V30 14 1 12 15
M  V30 15 2 13 16
M  V30 16 1 13 17
M  V30 17 2 15 18
M  V30 18 1 15 19
M  V30 19 1 18 20
M  V30 20 2 19 21
M  V30 21 2 20 22
M  V30 22 1 22 23
M  V30 23 1 23 24
M  V30 24 1 10 14
M  V30 25 2 11 12
M  V30 26 1 21 22
M  V30 END BOND
M  V30 BEGIN COLLECTION
M  V30 MDLV30/STERAC1 ATOMS=(1 9)
M  V30 END COLLECTION
M  V30 END CTAB
M  END
>  <Structure No>
804

>  <Catalog ID>
Z1603198224

>  <MW (desalted)>
329.350

>  <ClogP>
1.973

>  <HBD>
2

>  <TPSA>
95.520

>  <RotBonds>
4

>  <Target>
CHK1

>  <fromRegid>


>  <Similarity>


$$$$
Compound 805
Actelion Java MolfileCreator 2.0

  0  0  0  0  0  0              0 V3000
M  V30 BEGIN CTAB
M  V30 COUNTS 27 29 0 0 0
M  V30 BEGIN ATOM
M  V30 1 O 0.0 0.0 0.0 0
M  V30 2 C 1.1029 -0.9962 0.0 0
M  V30 3 N 0.9369 -2.4786 0.0 0
M  V30 4 N 2.5616 -0.6759 0.0 0
M  V30 5 C 2.3007 -3.0834 0.0 0
M  V30 6 C -0.3795 -3.2139 0.0 0
M  V30 7 C 3.2969 -1.9686 0.0 0 CFG=2
M  V30 8 O 2.5972 -4.5421 0.0 0
M  V30 9 C -1.6959 -2.4549 0.0 0
M  V30 10 C 4.2931 -3.0716 0.0 0
M  V30 11 C 4.5066 -1.0673 0.0 0
M  V30 12 C -3.0123 -3.1902 0.0 0
M  V30 13 C 5.7518 -2.7514 0.0 0
M  V30 14 O -3.0241 -4.6845 0.0 0
M  V30 15 N -4.3287 -2.4312 0.0 0
M  V30 16 C 6.748 -3.8543 0.0 0
M  V30 17 C 6.2025 -1.3045 0.0 0
M  V30 18 C -5.6451 -3.1664 0.0 0
M  V30 19 C 8.2067 -3.5341 0.0 0
M  V30 20 C 7.6612 -0.9843 0.0 0
M  V30 21 O -5.6569 -4.6607 0.0 0
M  V30 22 N -6.9615 -2.4074 0.0 0
M  V30 23 O 9.4164 -4.4117 0.0 0
M  V30 24 C 8.6574 -2.0872 0.0 0
M  V30 25 C -8.2779 -3.1427 0.0 0
M  V30 26 C 10.6261 -3.5104 0.0 0
M  V30 27 O 10.1517 -2.0754 0.0 0
M  V30 END ATOM
M  V30 BEGIN BOND
M  V30 1 2 1 2
M  V30 2 1 2 3
M  V30 3 1 2 4
M  V30 4 1 3 5
M  V30 5 1 3 6
M  V30 6 1 4 7
M  V30 7 2 5 8
M  V30 8 1 6 9
M  V30 9 1 7 10
M  V30 10 1 7 11 CFG=3
M  V30 11 1 9 12
M  V30 12 1 10 13
M  V30 13 2 12 14
M  V30 14 1 12 15
M  V30 15 2 13 16
M  V30 16 1 13 17
M  V30 17 1 15 18
M  V30 18 1 16 19
M  V30 19 2 17 20
M  V30 20 2 18 21
M  V30 21 1 18 22
M  V30 22 1 19 23
M  V30 23 2 19 24
M  V30 24 1 22 25
M  V30 25 1 23 26
M  V30 26 1 24 27
M  V30 27 1 5 7
M  V30 28 1 20 24
M  V30 29 1 26 27
M  V30 END BOND
M  V30 BEGIN COLLECTION
M  V30 MDLV30/STERAC1 ATOMS=(1 7)
M  V30 END COLLECTION
M  V30 END CTAB
M  END
>  <Structure No>
805

>  <Catalog ID>
Z930842458

>  <MW (desalted)>
376.364

>  <ClogP>
1.108

>  <HBD>
3

>  <TPSA>
126.070

>  <RotBonds>
5

>  <Target>
CHK1

>  <fromRegid>


>  <Similarity>


$$$$
Compound 806
Actelion Java MolfileCreator 2.0

  0  0  0  0  0  0              0 V3000
M  V30 BEGIN CTAB
M  V30 COUNTS 22 23 0 0 0
M  V30 BEGIN ATOM
M  V30 1 O 0.0 0.0 0.0 0
M  V30 2 C -0.0117 1.5083 0.0 0
M  V30 3 N -1.3197 2.2624 0.0 0
M  V30 4 C 1.2726 2.2624 0.0 0
M  V30 5 C -1.3315 3.7707 0.0 0
M  V30 6 C 1.2608 3.7707 0.0 0
M  V30 7 C 2.557 1.5318 0.0 0
M  V30 8 N -0.0471 4.5249 0.0 0
M  V30 9 C -2.6395 4.5249 0.0 0
M  V30 10 C 2.5452 4.5249 0.0 0
M  V30 11 C 3.8414 2.286 0.0 0
M  V30 12 N -3.9475 3.7943 0.0 0
M  V30 13 C 3.8297 3.7943 0.0 0
M  V30 14 C -5.2555 4.5485 0.0 0
M  V30 15 C -3.9593 2.3096 0.0 0
M  V30 16 C -6.5635 3.8179 0.0 0
M  V30 17 C -7.8715 4.572 0.0 0
M  V30 18 O -7.8833 6.0804 0.0 0
M  V30 19 N -9.1795 3.8414 0.0 0
M  V30 20 C -10.4875 4.5956 0.0 0
M  V30 21 O -11.7955 3.865 0.0 0
M  V30 22 N -10.4993 6.1039 0.0 0
M  V30 END ATOM
M  V30 BEGIN BOND
M  V30 1 2 1 2
M  V30 2 1 2 3
M  V30 3 1 2 4
M  V30 4 1 3 5
M  V30 5 2 4 6
M  V30 6 1 4 7
M  V30 7 2 5 8
M  V30 8 1 5 9
M  V30 9 1 6 10
M  V30 10 2 7 11
M  V30 11 1 9 12
M  V30 12 2 10 13
M  V30 13 1 12 14
M  V30 14 1 12 15
M  V30 15 1 14 16
M  V30 16 1 16 17
M  V30 17 2 17 18
M  V30 18 1 17 19
M  V30 19 1 19 20
M  V30 20 2 20 21
M  V30 21 1 20 22
M  V30 22 1 6 8
M  V30 23 1 11 13
M  V30 END BOND
M  V30 END CTAB
M  END
>  <Structure No>
806

>  <Catalog ID>
Z199661662

>  <MW (desalted)>
303.316

>  <ClogP>
-0.578

>  <HBD>
3

>  <TPSA>
116.890

>  <RotBonds>
5

>  <Target>
parp1

>  <fromRegid>


>  <Similarity>


$$$$
Compound 807
Actelion Java MolfileCreator 2.0

  0  0  0  0  0  0              0 V3000
M  V30 BEGIN CTAB
M  V30 COUNTS 27 30 0 0 0
M  V30 BEGIN ATOM
M  V30 1 S 0.0 0.0 0.0 0
M  V30 2 C 1.288 0.7562 0.0 0
M  V30 3 C -1.3116 0.7562 0.0 0
M  V30 4 N 1.2762 2.2688 0.0 0
M  V30 5 C 2.576 0.0236 0.0 0
M  V30 6 C -2.6233 0.0236 0.0 0
M  V30 7 C 2.5642 3.0369 0.0 0
M  V30 8 C 3.864 0.7799 0.0 0
M  V30 9 C 2.5642 -1.4652 0.0 0
M  V30 10 C -3.9349 0.7799 0.0 0
M  V30 11 N 3.8522 2.2924 0.0 0
M  V30 12 C 2.5524 4.5494 0.0 0
M  V30 13 N 5.1521 0.0472 0.0 0
M  V30 14 O 1.2525 -2.1979 0.0 0
M  V30 15 N 3.8522 -2.1979 0.0 0
M  V30 16 O -3.9468 2.2924 0.0 0
M  V30 17 N -5.2466 0.0472 0.0 0
M  V30 18 C 1.7961 5.8611 0.0 0
M  V30 19 C 3.2968 5.8611 0.0 0
M  V30 20 C 5.1402 -1.4416 0.0 0
M  V30 21 C 6.4401 0.8035 0.0 0
M  V30 22 C -6.5583 0.8035 0.0 0
M  V30 23 O 6.4283 -2.1742 0.0 0
M  V30 24 C 7.1845 2.1152 0.0 0
M  V30 25 C 7.929 0.8153 0.0 0
M  V30 26 O -6.5701 2.316 0.0 0
M  V30 27 N -7.8699 0.0709 0.0 0
M  V30 END ATOM
M  V30 BEGIN BOND
M  V30 1 1 1 2
M  V30 2 1 1 3
M  V30 3 2 2 4
M  V30 4 1 2 5
M  V30 5 1 3 6
M  V30 6 1 4 7
M  V30 7 2 5 8
M  V30 8 1 5 9
M  V30 9 1 6 10
M  V30 10 2 7 11
M  V30 11 1 7 12
M  V30 12 1 8 13
M  V30 13 2 9 14
M  V30 14 1 9 15
M  V30 15 2 10 16
M  V30 16 1 10 17
M  V30 17 1 12 18
M  V30 18 1 12 19
M  V30 19 1 13 20
M  V30 20 1 13 21
M  V30 21 1 17 22
M  V30 22 2 20 23
M  V30 23 1 21 24
M  V30 24 1 21 25
M  V30 25 2 22 26
M  V30 26 1 22 27
M  V30 27 1 8 11
M  V30 28 1 15 20
M  V30 29 1 18 19
M  V30 30 1 24 25
M  V30 END BOND
M  V30 END CTAB
M  END
>  <Structure No>
807

>  <Catalog ID>
Z237863526

>  <MW (desalted)>
390.417

>  <ClogP>
0.638

>  <HBD>
3

>  <TPSA>
147.380

>  <RotBonds>
6

>  <Target>
CHK1

>  <fromRegid>


>  <Similarity>


$$$$
Compound 808
Actelion Java MolfileCreator 2.0

  0  0  0  0  0  0              0 V3000
M  V30 BEGIN CTAB
M  V30 COUNTS 26 28 0 0 0
M  V30 BEGIN ATOM
M  V30 1 F 0.0 0.0 0.0 0
M  V30 2 C 1.296 -0.7372 0.0 0
M  V30 3 F 0.535 -2.0333 0.0 0
M  V30 4 F 2.0452 0.5826 0.0 0
M  V30 5 C 2.5921 -1.4863 0.0 0
M  V30 6 C 3.8882 -0.7134 0.0 0
M  V30 7 C 2.5802 -2.9845 0.0 0
M  V30 8 C 5.1843 -1.4625 0.0 0
M  V30 9 C 3.8763 -3.7217 0.0 0
M  V30 10 C 5.1724 -2.9607 0.0 0
M  V30 11 C 6.4685 -3.698 0.0 0
M  V30 12 C 7.7646 -2.937 0.0 0
M  V30 13 N 9.0607 -3.6742 0.0 0
M  V30 14 C 10.3568 -2.9132 0.0 0
M  V30 15 O 10.3449 -1.3912 0.0 0
M  V30 16 C 11.6528 -3.6504 0.0 0
M  V30 17 N 11.6409 -5.1486 0.0 0
M  V30 18 C 12.9489 -2.8894 0.0 0
M  V30 19 C 12.937 -5.8977 0.0 0
M  V30 20 C 14.245 -3.6266 0.0 0
M  V30 21 O 12.9251 -7.396 0.0 0
M  V30 22 C 14.2331 -5.1248 0.0 0
M  V30 23 C 15.5411 -2.8656 0.0 0
M  V30 24 C 15.5292 -5.874 0.0 0
M  V30 25 C 16.8372 -3.6028 0.0 0
M  V30 26 C 16.8253 -5.1011 0.0 0
M  V30 END ATOM
M  V30 BEGIN BOND
M  V30 1 1 1 2
M  V30 2 1 2 3
M  V30 3 1 2 4
M  V30 4 1 2 5
M  V30 5 2 5 6
M  V30 6 1 5 7
M  V30 7 1 6 8
M  V30 8 2 7 9
M  V30 9 2 8 10
M  V30 10 1 10 11
M  V30 11 1 11 12
M  V30 12 1 12 13
M  V30 13 1 13 14
M  V30 14 2 14 15
M  V30 15 1 14 16
M  V30 16 1 16 17
M  V30 17 2 16 18
M  V30 18 1 17 19
M  V30 19 1 18 20
M  V30 20 2 19 21
M  V30 21 1 19 22
M  V30 22 1 20 23
M  V30 23 1 22 24
M  V30 24 2 23 25
M  V30 25 2 24 26
M  V30 26 1 9 10
M  V30 27 2 20 22
M  V30 28 1 25 26
M  V30 END BOND
M  V30 END CTAB
M  END
>  <Structure No>
808

>  <Catalog ID>
Z65692087

>  <MW (desalted)>
360.330

>  <ClogP>
3.095

>  <HBD>
2

>  <TPSA>
58.200

>  <RotBonds>
5

>  <Target>
Tankyrase1

>  <fromRegid>


>  <Similarity>


$$$$
Compound 809
Actelion Java MolfileCreator 2.0

  0  0  0  0  0  0              0 V3000
M  V30 BEGIN CTAB
M  V30 COUNTS 25 28 0 0 0
M  V30 BEGIN ATOM
M  V30 1 O 0.0 0.0 0.0 0
M  V30 2 C 1.2881 -0.7445 0.0 0
M  V30 3 N 1.2763 -2.2336 0.0 0
M  V30 4 C 2.5763 0.0236 0.0 0
M  V30 5 C -0.0354 -2.9663 0.0 0
M  V30 6 C 3.9353 -0.579 0.0 0
M  V30 7 C 2.7181 1.5245 0.0 0
M  V30 8 C -1.3472 -2.2099 0.0 0
M  V30 9 C -0.0472 -4.4553 0.0 0
M  V30 10 N 4.9281 0.5436 0.0 0
M  V30 11 C 4.2308 -2.0326 0.0 0
M  V30 12 N 4.1717 1.8436 0.0 0
M  V30 13 C -2.659 -2.9426 0.0 0
M  V30 14 C -1.359 -5.1881 0.0 0
M  V30 15 C 6.4053 0.4018 0.0 0
M  V30 16 N -4.1008 -2.4699 0.0 0
M  V30 17 C -2.6708 -4.4317 0.0 0
M  V30 18 C 7.2798 1.6308 0.0 0
M  V30 19 N -4.999 -3.6754 0.0 0
M  V30 20 N -4.1126 -4.8808 0.0 0
M  V30 21 C 6.6535 3.0135 0.0 0
M  V30 22 C 8.7571 1.489 0.0 0
M  V30 23 C 7.528 4.2426 0.0 0
M  V30 24 C 9.6316 2.7181 0.0 0
M  V30 25 C 9.0053 4.1008 0.0 0
M  V30 END ATOM
M  V30 BEGIN BOND
M  V30 1 2 1 2
M  V30 2 1 2 3
M  V30 3 1 2 4
M  V30 4 1 3 5
M  V30 5 2 4 6
M  V30 6 1 4 7
M  V30 7 2 5 8
M  V30 8 1 5 9
M  V30 9 1 6 10
M  V30 10 1 6 11
M  V30 11 2 7 12
M  V30 12 1 8 13
M  V30 13 2 9 14
M  V30 14 1 10 15
M  V30 15 1 13 16
M  V30 16 2 13 17
M  V30 17 1 15 18
M  V30 18 2 16 19
M  V30 19 1 17 20
M  V30 20 2 18 21
M  V30 21 1 18 22
M  V30 22 1 21 23
M  V30 23 2 22 24
M  V30 24 2 23 25
M  V30 25 1 10 12
M  V30 26 1 14 17
M  V30 27 1 19 20
M  V30 28 1 24 25
M  V30 END BOND
M  V30 END CTAB
M  END
>  <Structure No>
809

>  <Catalog ID>
Z1420691934

>  <MW (desalted)>
332.359

>  <ClogP>
2.715

>  <HBD>
2

>  <TPSA>
88.490

>  <RotBonds>
4

>  <Target>
parp14

>  <fromRegid>


>  <Similarity>


$$$$
Compound 810
Actelion Java MolfileCreator 2.0

  0  0  0  0  0  0              0 V3000
M  V30 BEGIN CTAB
M  V30 COUNTS 22 24 0 0 0
M  V30 BEGIN ATOM
M  V30 1 F 0.0 0.0 0.0 0
M  V30 2 C -1.3096 -0.7315 0.0 0
M  V30 3 C -2.6193 0.0353 0.0 0
M  V30 4 C -1.3214 -2.2181 0.0 0
M  V30 5 C -3.9289 -0.6961 0.0 0
M  V30 6 C -2.6311 -2.9614 0.0 0
M  V30 7 N -5.3683 -0.2241 0.0 0
M  V30 8 C -3.9407 -2.1827 0.0 0
M  V30 9 C -6.265 -1.4276 0.0 0
M  V30 10 N -5.3801 -2.6311 0.0 0
M  V30 11 C -7.7753 -1.4158 0.0 0
M  V30 12 N -8.5304 -2.7018 0.0 0
M  V30 13 C -10.0406 -2.69 0.0 0
M  V30 14 O -10.8075 -1.3804 0.0 0
M  V30 15 C -10.8075 -3.9761 0.0 0
M  V30 16 C -10.2058 -5.333 0.0 0
M  V30 17 C -12.306 -4.1177 0.0 0
M  V30 18 N -8.7546 -5.6279 0.0 0 CHG=1
M  V30 19 N -11.3267 -6.324 0.0 0
M  V30 20 N -12.6245 -5.5689 0.0 0
M  V30 21 O -7.7635 -4.507 0.0 0
M  V30 22 O -8.3062 -7.0438 0.0 0 CHG=-1
M  V30 END ATOM
M  V30 BEGIN BOND
M  V30 1 1 1 2
M  V30 2 2 2 3
M  V30 3 1 2 4
M  V30 4 1 3 5
M  V30 5 2 4 6
M  V30 6 1 5 7
M  V30 7 2 5 8
M  V30 8 2 7 9
M  V30 9 1 8 10
M  V30 10 1 9 11
M  V30 11 1 11 12
M  V30 12 1 12 13
M  V30 13 2 13 14
M  V30 14 1 13 15
M  V30 15 1 15 16
M  V30 16 2 15 17
M  V30 17 1 16 18
M  V30 18 2 16 19
M  V30 19 1 17 20
M  V30 20 2 18 21
M  V30 21 1 18 22
M  V30 22 1 6 8
M  V30 23 1 9 10
M  V30 24 1 19 20
M  V30 END BOND
M  V30 END CTAB
M  END
>  <Structure No>
810

>  <Catalog ID>
Z1916268302

>  <MW (desalted)>
304.237

>  <ClogP>
0.642

>  <HBD>
3

>  <TPSA>
129.600

>  <RotBonds>
4

>  <Target>
ATM

>  <fromRegid>


>  <Similarity>


$$$$
Compound 811
Actelion Java MolfileCreator 2.0

  0  0  0  0  0  0              0 V3000
M  V30 BEGIN CTAB
M  V30 COUNTS 23 25 0 0 0
M  V30 BEGIN ATOM
M  V30 1 O 0.0 0.0 0.0 0
M  V30 2 C -0.0118 -1.4949 0.0 0
M  V30 3 N 1.2813 -2.2305 0.0 0
M  V30 4 C -1.3288 -2.2305 0.0 0
M  V30 5 C 1.2695 -3.7255 0.0 0
M  V30 6 C -1.3407 -3.7255 0.0 0
M  V30 7 C -2.6458 -1.4712 0.0 0
M  V30 8 C 2.5627 -4.4611 0.0 0
M  V30 9 C -0.0474 -4.4611 0.0 0
M  V30 10 C -2.6576 -4.4611 0.0 0
M  V30 11 C -3.9627 -2.2068 0.0 0
M  V30 12 O 2.5509 -5.956 0.0 0
M  V30 13 N 3.856 -3.7017 0.0 0
M  V30 14 C -3.9746 -3.7017 0.0 0
M  V30 15 C 5.1492 -4.4373 0.0 0
M  V30 16 C 6.4425 -3.678 0.0 0
M  V30 17 C 7.7357 -4.4136 0.0 0
M  V30 18 C 9.029 -3.6543 0.0 0
M  V30 19 C 9.0171 -2.1356 0.0 0
M  V30 20 C 10.3222 -4.3899 0.0 0
M  V30 21 C 10.3103 -1.3762 0.0 0
M  V30 22 C 11.6154 -3.6305 0.0 0
M  V30 23 C 11.6036 -2.1119 0.0 0
M  V30 END ATOM
M  V30 BEGIN BOND
M  V30 1 2 1 2
M  V30 2 1 2 3
M  V30 3 1 2 4
M  V30 4 1 3 5
M  V30 5 2 4 6
M  V30 6 1 4 7
M  V30 7 1 5 8
M  V30 8 2 5 9
M  V30 9 1 6 10
M  V30 10 2 7 11
M  V30 11 2 8 12
M  V30 12 1 8 13
M  V30 13 2 10 14
M  V30 14 1 13 15
M  V30 15 1 15 16
M  V30 16 1 16 17
M  V30 17 1 17 18
M  V30 18 1 18 19
M  V30 19 1 18 20
M  V30 20 1 19 21
M  V30 21 1 20 22
M  V30 22 1 21 23
M  V30 23 1 6 9
M  V30 24 1 11 14
M  V30 25 1 22 23
M  V30 END BOND
M  V30 END CTAB
M  END
>  <Structure No>
811

>  <Catalog ID>
Z397188004

>  <MW (desalted)>
312.406

>  <ClogP>
3.823

>  <HBD>
2

>  <TPSA>
58.200

>  <RotBonds>
5

>  <Target>
parp15, Tankyrase1

>  <fromRegid>


>  <Similarity>


$$$$
Compound 812
Actelion Java MolfileCreator 2.0

  0  0  0  0  0  0              0 V3000
M  V30 BEGIN CTAB
M  V30 COUNTS 24 26 0 0 0
M  V30 BEGIN ATOM
M  V30 1 F 0.0 0.0 0.0 0
M  V30 2 C -0.0117 1.505 0.0 0
M  V30 3 C -1.3169 2.2576 0.0 0
M  V30 4 O -1.3287 3.7627 0.0 0
M  V30 5 C -2.6339 4.527 0.0 0
M  V30 6 C -2.6456 6.0321 0.0 0
M  V30 7 C -3.939 3.7862 0.0 0
M  V30 8 C -3.9508 6.7846 0.0 0
M  V30 9 C -5.2442 4.5505 0.0 0
M  V30 10 N -3.9626 8.2897 0.0 0
M  V30 11 C -5.256 6.0556 0.0 0
M  V30 12 C -5.2678 9.0422 0.0 0
M  V30 13 O -6.5729 8.3014 0.0 0
M  V30 14 C -5.2795 10.5473 0.0 0
M  V30 15 C -3.9978 11.2999 0.0 0
M  V30 16 C -6.5847 11.2999 0.0 0
M  V30 17 C -4.0096 12.8049 0.0 0
M  V30 18 C -2.7162 10.5708 0.0 0
M  V30 19 N -6.5965 12.8049 0.0 0
M  V30 20 C -5.3148 13.5575 0.0 0
M  V30 21 C -2.7279 13.5575 0.0 0
M  V30 22 C -1.4345 11.3234 0.0 0
M  V30 23 O -5.3265 15.0626 0.0 0
M  V30 24 C -1.4462 12.8285 0.0 0
M  V30 END ATOM
M  V30 BEGIN BOND
M  V30 1 1 1 2
M  V30 2 1 2 3
M  V30 3 1 3 4
M  V30 4 1 4 5
M  V30 5 2 5 6
M  V30 6 1 5 7
M  V30 7 1 6 8
M  V30 8 2 7 9
M  V30 9 1 8 10
M  V30 10 2 8 11
M  V30 11 1 10 12
M  V30 12 2 12 13
M  V30 13 1 12 14
M  V30 14 1 14 15
M  V30 15 2 14 16
M  V30 16 2 15 17
M  V30 17 1 15 18
M  V30 18 1 16 19
M  V30 19 1 17 20
M  V30 20 1 17 21
M  V30 21 2 18 22
M  V30 22 2 20 23
M  V30 23 2 21 24
M  V30 24 1 9 11
M  V30 25 1 19 20
M  V30 26 1 22 24
M  V30 END BOND
M  V30 END CTAB
M  END
>  <Structure No>
812

>  <Catalog ID>
Z1816889275

>  <MW (desalted)>
326.322

>  <ClogP>
2.130

>  <HBD>
2

>  <TPSA>
67.430

>  <RotBonds>
5

>  <Target>
parp2

>  <fromRegid>


>  <Similarity>


$$$$
Compound 813
Actelion Java MolfileCreator 2.0

  0  0  0  0  0  0              0 V3000
M  V30 BEGIN CTAB
M  V30 COUNTS 28 29 0 0 0
M  V30 BEGIN ATOM
M  V30 1 F 0.0 0.0 0.0 0
M  V30 2 C -0.0117 1.5055 0.0 0
M  V30 3 C -1.3173 2.2582 0.0 0
M  V30 4 C 1.2702 2.2582 0.0 0
M  V30 5 C -1.329 3.7638 0.0 0
M  V30 6 C 1.2585 3.7638 0.0 0
M  V30 7 N -2.6346 4.5283 0.0 0
M  V30 8 C -0.047 4.5283 0.0 0
M  V30 9 C -3.9402 3.7873 0.0 0
M  V30 10 O -3.952 2.3053 0.0 0
M  V30 11 C -5.2458 4.5518 0.0 0
M  V30 12 N -6.5514 3.8108 0.0 0
M  V30 13 C -7.8569 4.5753 0.0 0
M  V30 14 C -6.5631 2.3288 0.0 0
M  V30 15 C -9.1625 3.8343 0.0 0
M  V30 16 C -7.8687 6.0809 0.0 0
M  V30 17 O -9.1743 2.3523 0.0 0
M  V30 18 N -10.4681 4.5989 0.0 0
M  V30 19 C -11.7737 3.8579 0.0 0
M  V30 20 C -13.0792 4.6224 0.0 0
M  V30 21 C -11.7854 2.3759 0.0 0
M  V30 22 C -14.3848 3.8814 0.0 0
M  V30 23 C -13.091 6.1279 0.0 0
M  V30 24 C -13.091 1.6466 0.0 0
M  V30 25 C -14.3966 2.3994 0.0 0
M  V30 26 C -14.3966 6.8807 0.0 0
M  V30 27 C -11.8089 6.8807 0.0 0
M  V30 28 C -15.7021 6.1514 0.0 0
M  V30 END ATOM
M  V30 BEGIN BOND
M  V30 1 1 1 2
M  V30 2 2 2 3
M  V30 3 1 2 4
M  V30 4 1 3 5
M  V30 5 2 4 6
M  V30 6 1 5 7
M  V30 7 2 5 8
M  V30 8 1 7 9
M  V30 9 2 9 10
M  V30 10 1 9 11
M  V30 11 1 11 12
M  V30 12 1 12 13
M  V30 13 1 12 14
M  V30 14 1 13 15
M  V30 15 1 13 16
M  V30 16 2 15 17
M  V30 17 1 15 18
M  V30 18 1 18 19
M  V30 19 2 19 20
M  V30 20 1 19 21
M  V30 21 1 20 22
M  V30 22 1 20 23
M  V30 23 2 21 24
M  V30 24 2 22 25
M  V30 25 1 23 26
M  V30 26 1 23 27
M  V30 27 1 26 28
M  V30 28 1 6 8
M  V30 29 1 24 25
M  V30 END BOND
M  V30 END CTAB
M  END
>  <Structure No>
813

>  <Catalog ID>
Z44458029

>  <MW (desalted)>
385.475

>  <ClogP>
4.143

>  <HBD>
2

>  <TPSA>
61.440

>  <RotBonds>
8

>  <Target>
ATM

>  <fromRegid>


>  <Similarity>


$$$$
Compound 814
Actelion Java MolfileCreator 2.0

  0  0  0  0  0  0              0 V3000
M  V30 BEGIN CTAB
M  V30 COUNTS 26 28 0 0 0
M  V30 BEGIN ATOM
M  V30 1 O 0.0 0.0 0.0 0
M  V30 2 C -0.0118 -1.4889 0.0 0
M  V30 3 N -1.3234 -2.2215 0.0 0
M  V30 4 C 1.2762 -2.2215 0.0 0
M  V30 5 C -2.6351 -1.4652 0.0 0
M  V30 6 N 1.418 -3.6986 0.0 0
M  V30 7 C 2.6351 -1.5952 0.0 0
M  V30 8 C -3.9467 -2.1979 0.0 0
M  V30 9 C 2.8714 -3.994 0.0 0
M  V30 10 C 3.6277 -2.6942 0.0 0
M  V30 11 O -3.9585 -3.6868 0.0 0
M  V30 12 N -5.2584 -1.4416 0.0 0
M  V30 13 C 3.6159 -5.282 0.0 0
M  V30 14 C 5.1166 -2.6823 0.0 0
M  V30 15 C -6.57 -2.1742 0.0 0
M  V30 16 C 5.1048 -5.2702 0.0 0
M  V30 17 C 5.861 -3.9704 0.0 0
M  V30 18 C -7.8817 -1.418 0.0 0 CFG=2
M  V30 19 O -8.6379 -2.706 0.0 0
M  V30 20 C -9.1933 -0.6499 0.0 0
M  V30 21 C -7.149 -0.1063 0.0 0
M  V30 22 C -10.505 -1.3943 0.0 0
M  V30 23 C -9.2051 0.8626 0.0 0
M  V30 24 C -11.8166 -0.6262 0.0 0
M  V30 25 C -10.5168 1.6188 0.0 0
M  V30 26 C -11.8284 0.8862 0.0 0
M  V30 END ATOM
M  V30 BEGIN BOND
M  V30 1 2 1 2
M  V30 2 1 2 3
M  V30 3 1 2 4
M  V30 4 1 3 5
M  V30 5 1 4 6
M  V30 6 2 4 7
M  V30 7 1 5 8
M  V30 8 1 6 9
M  V30 9 1 7 10
M  V30 10 2 8 11
M  V30 11 1 8 12
M  V30 12 1 9 13
M  V30 13 1 10 14
M  V30 14 1 12 15
M  V30 15 2 13 16
M  V30 16 2 14 17
M  V30 17 1 15 18
M  V30 18 1 18 19
M  V30 19 1 18 20 CFG=3
M  V30 20 1 18 21
M  V30 21 1 20 22
M  V30 22 1 20 23
M  V30 23 1 22 24
M  V30 24 1 23 25
M  V30 25 1 24 26
M  V30 26 2 9 10
M  V30 27 1 16 17
M  V30 28 1 25 26
M  V30 END BOND
M  V30 BEGIN COLLECTION
M  V30 MDLV30/STERAC1 ATOMS=(1 18)
M  V30 END COLLECTION
M  V30 END CTAB
M  END
>  <Structure No>
814

>  <Catalog ID>
Z1841982601

>  <MW (desalted)>
357.447

>  <ClogP>
3.094

>  <HBD>
4

>  <TPSA>
94.220

>  <RotBonds>
6

>  <Target>
ATM

>  <fromRegid>


>  <Similarity>


$$$$
Compound 815
Actelion Java MolfileCreator 2.0

  0  0  0  0  0  0              0 V3000
M  V30 BEGIN CTAB
M  V30 COUNTS 28 29 0 0 0
M  V30 BEGIN ATOM
M  V30 1 S 0.0 0.0 0.0 0
M  V30 2 C -0.0118 1.5144 0.0 0
M  V30 3 C -1.3132 -0.7335 0.0 0 CFG=2
M  V30 4 C 1.2777 2.2716 0.0 0
M  V30 5 C -1.3251 2.2716 0.0 0
M  V30 6 C -1.3251 -2.2242 0.0 0
M  V30 7 C -2.6265 0.0236 0.0 0
M  V30 8 C 2.5673 1.5262 0.0 0
M  V30 9 C 1.2659 3.786 0.0 0
M  V30 10 C -1.3369 3.786 0.0 0
M  V30 11 O -2.6383 -2.9578 0.0 0
M  V30 12 N -0.0354 -2.9578 0.0 0
M  V30 13 O 2.5555 0.0354 0.0 0
M  V30 14 N 3.857 2.2834 0.0 0
M  V30 15 C -0.0473 4.5432 0.0 0
M  V30 16 C 5.1466 1.538 0.0 0
M  V30 17 C 6.4362 2.2952 0.0 0
M  V30 18 O 6.4243 3.8096 0.0 0
M  V30 19 N 7.7258 1.5499 0.0 0
M  V30 20 C 9.0154 2.3071 0.0 0
M  V30 21 C 10.305 1.5617 0.0 0
M  V30 22 C 9.0036 3.8215 0.0 0
M  V30 23 F 10.2932 0.0709 0.0 0
M  V30 24 C 11.5946 2.3189 0.0 0
M  V30 25 C 10.2932 4.5787 0.0 0
M  V30 26 F 12.8842 1.5735 0.0 0
M  V30 27 C 11.5828 3.8333 0.0 0
M  V30 28 F 12.8724 4.5905 0.0 0
M  V30 END ATOM
M  V30 BEGIN BOND
M  V30 1 1 1 2
M  V30 2 1 3 1 CFG=3
M  V30 3 2 2 4
M  V30 4 1 2 5
M  V30 5 1 3 6
M  V30 6 1 3 7
M  V30 7 1 4 8
M  V30 8 1 4 9
M  V30 9 2 5 10
M  V30 10 2 6 11
M  V30 11 1 6 12
M  V30 12 2 8 13
M  V30 13 1 8 14
M  V30 14 2 9 15
M  V30 15 1 14 16
M  V30 16 1 16 17
M  V30 17 2 17 18
M  V30 18 1 17 19
M  V30 19 1 19 20
M  V30 20 2 20 21
M  V30 21 1 20 22
M  V30 22 1 21 23
M  V30 23 1 21 24
M  V30 24 2 22 25
M  V30 25 1 24 26
M  V30 26 2 24 27
M  V30 27 1 27 28
M  V30 28 1 10 15
M  V30 29 1 25 27
M  V30 END BOND
M  V30 BEGIN COLLECTION
M  V30 MDLV30/STERAC1 ATOMS=(1 3)
M  V30 END COLLECTION
M  V30 END CTAB
M  END
>  <Structure No>
815

>  <Catalog ID>
Z2010151393

>  <MW (desalted)>
411.398

>  <ClogP>
0.452

>  <HBD>
3

>  <TPSA>
101.290

>  <RotBonds>
7

>  <Target>
DNA_pk

>  <fromRegid>


>  <Similarity>


$$$$
Compound 816
Actelion Java MolfileCreator 2.0

  0  0  0  0  0  0              0 V3000
M  V30 BEGIN CTAB
M  V30 COUNTS 20 22 0 0 0
M  V30 BEGIN ATOM
M  V30 1 O 0.0 0.0 0.0 0
M  V30 2 C -0.0118 -1.4912 0.0 0
M  V30 3 N -1.3255 -2.225 0.0 0
M  V30 4 C 1.2782 -2.225 0.0 0
M  V30 5 C -2.6393 -1.4676 0.0 0
M  V30 6 N 1.4202 -3.7045 0.0 0
M  V30 7 C 2.6393 -1.5978 0.0 0
M  V30 8 C -3.953 -2.2014 0.0 0 CFG=2
M  V30 9 C 2.876 -4.0004 0.0 0
M  V30 10 C 3.6335 -2.6985 0.0 0
M  V30 11 C -5.2668 -1.4439 0.0 0
M  V30 12 C -3.9649 -3.6927 0.0 0
M  V30 13 C 5.1129 -2.5328 0.0 0
M  V30 14 C -6.5805 -2.1777 0.0 0
M  V30 15 C -5.2786 -4.4265 0.0 0
M  V30 16 N 6.5924 -2.3671 0.0 0
M  V30 17 N -8.0245 -1.7043 0.0 0
M  V30 18 N -6.5924 -3.669 0.0 0
M  V30 19 C -8.924 -2.9115 0.0 0
M  V30 20 C -8.0363 -4.1187 0.0 0
M  V30 END ATOM
M  V30 BEGIN BOND
M  V30 1 2 1 2
M  V30 2 1 2 3
M  V30 3 1 2 4
M  V30 4 1 3 5
M  V30 5 1 4 6
M  V30 6 2 4 7
M  V30 7 1 8 5 CFG=1
M  V30 8 1 6 9
M  V30 9 1 7 10
M  V30 10 1 8 11
M  V30 11 1 8 12
M  V30 12 1 10 13
M  V30 13 1 11 14
M  V30 14 1 12 15
M  V30 15 3 13 16
M  V30 16 2 14 17
M  V30 17 1 14 18
M  V30 18 1 17 19
M  V30 19 1 18 20
M  V30 20 2 9 10
M  V30 21 1 15 18
M  V30 22 2 19 20
M  V30 END BOND
M  V30 BEGIN COLLECTION
M  V30 MDLV30/STERAC1 ATOMS=(1 8)
M  V30 END COLLECTION
M  V30 END CTAB
M  END
>  <Structure No>
816

>  <Catalog ID>
Z1756483376

>  <MW (desalted)>
269.302

>  <ClogP>
0.116

>  <HBD>
2

>  <TPSA>
86.500

>  <RotBonds>
3

>  <Target>
CHK1

>  <fromRegid>


>  <Similarity>


$$$$
Compound 817
Actelion Java MolfileCreator 2.0

  0  0  0  0  0  0              0 V3000
M  V30 BEGIN CTAB
M  V30 COUNTS 26 29 0 0 0
M  V30 BEGIN ATOM
M  V30 1 O 0.0 0.0 0.0 0
M  V30 2 C 1.2938 -0.7359 0.0 0
M  V30 3 N 2.5876 0.0237 0.0 0
M  V30 4 C 1.2819 -2.2315 0.0 0
M  V30 5 C 3.8814 -0.7121 0.0 0
M  V30 6 C 2.5757 -2.9793 0.0 0 CFG=2
M  V30 7 C 3.8695 -2.2077 0.0 0
M  V30 8 C 5.1752 0.0474 0.0 0
M  V30 9 C 2.5638 -4.4749 0.0 0
M  V30 10 C 5.1633 -2.9555 0.0 0
M  V30 11 C 6.469 -0.6884 0.0 0
M  V30 12 O 3.8577 -5.2227 0.0 0
M  V30 13 N 1.2463 -5.2227 0.0 0
M  V30 14 C 6.4572 -2.1959 0.0 0
M  V30 15 C 1.2344 -6.7183 0.0 0
M  V30 16 C 0.0 -7.5967 0.0 0
M  V30 17 C 2.4451 -7.5967 0.0 0
M  V30 18 O 0.451 -9.0211 0.0 0
M  V30 19 C -1.4481 -7.1219 0.0 0
M  V30 20 C 1.9703 -9.0211 0.0 0
M  V30 21 C 3.9051 -7.2762 0.0 0
M  V30 22 O -2.5757 -8.1189 0.0 0
M  V30 23 C -1.7686 -5.6381 0.0 0
M  V30 24 C 2.9674 -10.1249 0.0 0
M  V30 25 C 4.9022 -8.3801 0.0 0
M  V30 26 C 4.4274 -9.8045 0.0 0
M  V30 END ATOM
M  V30 BEGIN BOND
M  V30 1 2 1 2
M  V30 2 1 2 3
M  V30 3 1 2 4
M  V30 4 1 3 5
M  V30 5 1 4 6
M  V30 6 2 5 7
M  V30 7 1 5 8
M  V30 8 1 6 9 CFG=3
M  V30 9 1 7 10
M  V30 10 2 8 11
M  V30 11 2 9 12
M  V30 12 1 9 13
M  V30 13 2 10 14
M  V30 14 1 13 15
M  V30 15 2 15 16
M  V30 16 1 15 17
M  V30 17 1 16 18
M  V30 18 1 16 19
M  V30 19 2 17 20
M  V30 20 1 17 21
M  V30 21 2 19 22
M  V30 22 1 19 23
M  V30 23 1 20 24
M  V30 24 2 21 25
M  V30 25 2 24 26
M  V30 26 1 6 7
M  V30 27 1 11 14
M  V30 28 1 18 20
M  V30 29 1 25 26
M  V30 END BOND
M  V30 BEGIN COLLECTION
M  V30 MDLV30/STERAC1 ATOMS=(1 6)
M  V30 END COLLECTION
M  V30 END CTAB
M  END
>  <Structure No>
817

>  <Catalog ID>
Z1779706998

>  <MW (desalted)>
348.352

>  <ClogP>
2.704

>  <HBD>
2

>  <TPSA>
88.410

>  <RotBonds>
3

>  <Target>
ATM

>  <fromRegid>


>  <Similarity>


$$$$
Compound 818
Actelion Java MolfileCreator 2.0

  0  0  0  0  0  0              0 V3000
M  V30 BEGIN CTAB
M  V30 COUNTS 25 28 0 0 0
M  V30 BEGIN ATOM
M  V30 1 S 0.0 0.0 0.0 0
M  V30 2 O -0.6272 -1.361 0.0 0
M  V30 3 O -1.4438 0.4734 0.0 0
M  V30 4 C 0.2958 1.4793 0.0 0
M  V30 5 C 1.29 -0.7337 0.0 0
M  V30 6 C 1.7752 1.645 0.0 0
M  V30 7 C 2.3906 0.284 0.0 0
M  V30 8 N 2.5208 2.9587 0.0 0
M  V30 9 C 4.012 2.9705 0.0 0
M  V30 10 O 4.7576 1.6805 0.0 0
M  V30 11 C 4.7576 4.2842 0.0 0
M  V30 12 N 6.2488 4.2961 0.0 0
M  V30 13 C 3.9883 5.5979 0.0 0
M  V30 14 C 7.3021 5.373 0.0 0
M  V30 15 C 7.3021 3.2427 0.0 0
M  V30 16 C 8.3555 4.3197 0.0 0
M  V30 17 C 9.8467 4.3316 0.0 0
M  V30 18 N 10.7225 5.5624 0.0 0
M  V30 19 N 10.7225 3.1244 0.0 0
M  V30 20 C 12.1427 5.1127 0.0 0
M  V30 21 C 12.1427 3.5978 0.0 0
M  V30 22 C 13.4327 5.8819 0.0 0
M  V30 23 C 13.4327 2.8522 0.0 0
M  V30 24 C 14.7227 5.1482 0.0 0
M  V30 25 C 14.7227 3.6215 0.0 0
M  V30 END ATOM
M  V30 BEGIN BOND
M  V30 1 2 1 2
M  V30 2 2 1 3
M  V30 3 1 1 4
M  V30 4 1 1 5
M  V30 5 1 4 6
M  V30 6 1 5 7
M  V30 7 1 6 8
M  V30 8 1 8 9
M  V30 9 2 9 10
M  V30 10 1 9 11
M  V30 11 1 11 12
M  V30 12 1 11 13
M  V30 13 1 12 14
M  V30 14 1 12 15
M  V30 15 1 14 16
M  V30 16 1 16 17
M  V30 17 2 17 18
M  V30 18 1 17 19
M  V30 19 1 18 20
M  V30 20 1 19 21
M  V30 21 1 20 22
M  V30 22 1 21 23
M  V30 23 2 22 24
M  V30 24 2 23 25
M  V30 25 1 6 7
M  V30 26 1 15 16
M  V30 27 2 20 21
M  V30 28 1 24 25
M  V30 END BOND
M  V30 END CTAB
M  END
>  <Structure No>
818

>  <Catalog ID>
Z1492357606

>  <MW (desalted)>
362.447

>  <ClogP>
-0.371

>  <HBD>
2

>  <TPSA>
95.160

>  <RotBonds>
4

>  <Target>
ATM

>  <fromRegid>


>  <Similarity>


$$$$
Compound 819
Actelion Java MolfileCreator 2.0

  0  0  0  0  0  0              0 V3000
M  V30 BEGIN CTAB
M  V30 COUNTS 26 28 0 0 0
M  V30 BEGIN ATOM
M  V30 1 S 0.0 0.0 0.0 0
M  V30 2 C -1.3073 0.7655 0.0 0
M  V30 3 C 1.2837 0.7655 0.0 0
M  V30 4 N -2.6853 0.1648 0.0 0
M  V30 5 N -1.4722 2.2613 0.0 0
M  V30 6 C 2.5675 0.0235 0.0 0
M  V30 7 N -3.6982 1.2837 0.0 0
M  V30 8 C -0.4828 3.3802 0.0 0
M  V30 9 C -2.9444 2.5793 0.0 0
M  V30 10 N 3.8513 0.7891 0.0 0
M  V30 11 C -0.954 4.8171 0.0 0
M  V30 12 C 0.9657 3.0858 0.0 0
M  V30 13 N -3.4155 4.0162 0.0 0
M  V30 14 C 5.1351 0.0471 0.0 0
M  V30 15 C -2.4262 5.1351 0.0 0
M  V30 16 C 0.0353 5.936 0.0 0
M  V30 17 C 1.9551 4.2047 0.0 0
M  V30 18 C -4.8878 4.3342 0.0 0
M  V30 19 C 6.4189 0.8126 0.0 0
M  V30 20 C 5.1233 -1.4369 0.0 0
M  V30 21 O -2.8973 6.572 0.0 0
M  V30 22 C 1.484 5.6416 0.0 0
M  V30 23 C -5.3589 5.7711 0.0 0
M  V30 24 C -6.8311 6.0891 0.0 0
M  V30 25 O -7.3023 7.526 0.0 0
M  V30 26 C -8.7745 7.844 0.0 0
M  V30 END ATOM
M  V30 BEGIN BOND
M  V30 1 1 1 2
M  V30 2 1 1 3
M  V30 3 2 2 4
M  V30 4 1 2 5
M  V30 5 1 3 6
M  V30 6 1 4 7
M  V30 7 1 5 8
M  V30 8 1 5 9
M  V30 9 1 6 10
M  V30 10 2 8 11
M  V30 11 1 8 12
M  V30 12 1 9 13
M  V30 13 1 10 14
M  V30 14 1 11 15
M  V30 15 1 11 16
M  V30 16 2 12 17
M  V30 17 1 13 18
M  V30 18 1 14 19
M  V30 19 1 14 20
M  V30 20 2 15 21
M  V30 21 2 16 22
M  V30 22 1 18 23
M  V30 23 1 23 24
M  V30 24 1 24 25
M  V30 25 1 25 26
M  V30 26 2 7 9
M  V30 27 1 13 15
M  V30 28 1 17 22
M  V30 END BOND
M  V30 END CTAB
M  END
>  <Structure No>
819

>  <Catalog ID>
Z1981566717

>  <MW (desalted)>
375.488

>  <ClogP>
1.614

>  <HBD>
1

>  <TPSA>
72.280

>  <RotBonds>
9

>  <Target>
CHK2

>  <fromRegid>


>  <Similarity>


$$$$
Compound 820
Actelion Java MolfileCreator 2.0

  0  0  0  0  0  0              0 V3000
M  V30 BEGIN CTAB
M  V30 COUNTS 24 26 0 0 0
M  V30 BEGIN ATOM
M  V30 1 O 0.0 0.0 0.0 0
M  V30 2 N -1.4672 0.3169 0.0 0 CHG=1
M  V30 3 O -2.4767 -0.7747 0.0 0 CHG=-1
M  V30 4 C -1.9367 1.7489 0.0 0
M  V30 5 C -0.9507 2.864 0.0 0
M  V30 6 C -3.404 2.0658 0.0 0
M  V30 7 C -1.4203 4.2961 0.0 0
M  V30 8 C -3.8735 3.4979 0.0 0
M  V30 9 N -0.4343 5.4112 0.0 0
M  V30 10 C -2.8875 4.613 0.0 0
M  V30 11 C -0.9038 6.8432 0.0 0
M  V30 12 C -3.357 6.045 0.0 0
M  V30 13 O -2.371 7.1601 0.0 0
M  V30 14 N 0.0821 7.9583 0.0 0
M  V30 15 C -0.3873 9.3904 0.0 0
M  V30 16 N 0.4812 10.6111 0.0 0
M  V30 17 C -1.8193 9.8599 0.0 0
M  V30 18 N -0.4108 11.8319 0.0 0
M  V30 19 C -1.8311 11.3624 0.0 0
M  V30 20 C -3.2514 9.4138 0.0 0
M  V30 21 N -3.2631 11.8319 0.0 0
M  V30 22 N -4.1435 10.6346 0.0 0
M  V30 23 C -3.7209 8.0053 0.0 0
M  V30 24 C -3.7326 13.2639 0.0 0
M  V30 END ATOM
M  V30 BEGIN BOND
M  V30 1 2 1 2
M  V30 2 1 2 3
M  V30 3 1 2 4
M  V30 4 2 4 5
M  V30 5 1 4 6
M  V30 6 1 5 7
M  V30 7 2 6 8
M  V30 8 1 7 9
M  V30 9 2 7 10
M  V30 10 1 9 11
M  V30 11 1 10 12
M  V30 12 2 11 13
M  V30 13 1 11 14
M  V30 14 1 14 15
M  V30 15 2 15 16
M  V30 16 1 15 17
M  V30 17 1 16 18
M  V30 18 2 17 19
M  V30 19 1 17 20
M  V30 20 1 19 21
M  V30 21 2 20 22
M  V30 22 1 20 23
M  V30 23 1 21 24
M  V30 24 1 8 10
M  V30 25 1 18 19
M  V30 26 1 21 22
M  V30 END BOND
M  V30 END CTAB
M  END
>  <Structure No>
820

>  <Catalog ID>
Z1913010981

>  <MW (desalted)>
329.314

>  <ClogP>
1.835

>  <HBD>
3

>  <TPSA>
130.770

>  <RotBonds>
3

>  <Target>
CHK1

>  <fromRegid>


>  <Similarity>


$$$$
Compound 821
Actelion Java MolfileCreator 2.0

  0  0  0  0  0  0              0 V3000
M  V30 BEGIN CTAB
M  V30 COUNTS 28 30 0 0 0
M  V30 BEGIN ATOM
M  V30 1 S 0.0 0.0 0.0 0
M  V30 2 C -1.5046 0.0117 0.0 0
M  V30 3 C 0.4467 1.4341 0.0 0
M  V30 4 N -1.9749 1.4459 0.0 0
M  V30 5 C -2.3981 -1.1872 0.0 0
M  V30 6 C -0.7758 2.3275 0.0 0
M  V30 7 C -0.7876 3.8322 0.0 0
M  V30 8 O 0.4937 4.5846 0.0 0
M  V30 9 C 0.4819 6.0892 0.0 0
M  V30 10 C 1.7633 6.8416 0.0 0
M  V30 11 C -0.8228 6.8416 0.0 0
M  V30 12 C 1.7515 8.3463 0.0 0
M  V30 13 C -0.8346 8.3463 0.0 0
M  V30 14 C 0.4467 9.0986 0.0 0
M  V30 15 C 0.4349 10.6033 0.0 0
M  V30 16 O 1.7162 11.3557 0.0 0
M  V30 17 N -0.8698 11.3557 0.0 0
M  V30 18 C -0.8816 12.8604 0.0 0
M  V30 19 C 0.3996 13.6127 0.0 0
M  V30 20 C -2.1865 13.6127 0.0 0
M  V30 21 C 0.3879 15.1174 0.0 0
M  V30 22 C 1.681 12.8721 0.0 0
M  V30 23 C -2.1982 15.1174 0.0 0
M  V30 24 C -0.9169 15.8697 0.0 0
M  V30 25 O -3.5031 15.8697 0.0 0
M  V30 26 O -0.9286 17.3744 0.0 0
M  V30 27 C -3.5148 17.3744 0.0 0
M  V30 28 C -2.2335 18.1268 0.0 0
M  V30 END ATOM
M  V30 BEGIN BOND
M  V30 1 1 1 2
M  V30 2 1 1 3
M  V30 3 2 2 4
M  V30 4 1 2 5
M  V30 5 2 3 6
M  V30 6 1 6 7
M  V30 7 1 7 8
M  V30 8 1 8 9
M  V30 9 2 9 10
M  V30 10 1 9 11
M  V30 11 1 10 12
M  V30 12 2 11 13
M  V30 13 2 12 14
M  V30 14 1 14 15
M  V30 15 2 15 16
M  V30 16 1 15 17
M  V30 17 1 17 18
M  V30 18 2 18 19
M  V30 19 1 18 20
M  V30 20 1 19 21
M  V30 21 1 19 22
M  V30 22 2 20 23
M  V30 23 2 21 24
M  V30 24 1 23 25
M  V30 25 1 24 26
M  V30 26 1 25 27
M  V30 27 1 26 28
M  V30 28 1 4 6
M  V30 29 1 13 14
M  V30 30 1 23 24
M  V30 END BOND
M  V30 END CTAB
M  END
>  <Structure No>
821

>  <Catalog ID>
Z95670656

>  <MW (desalted)>
398.475

>  <ClogP>
2.954

>  <HBD>
1

>  <TPSA>
69.680

>  <RotBonds>
7

>  <Target>
Serine/threonine-protein kinase Chk1

>  <fromRegid>
CHEMBL549527

>  <Similarity>
0.87

$$$$
Compound 822
Actelion Java MolfileCreator 2.0

  0  0  0  0  0  0              0 V3000
M  V30 BEGIN CTAB
M  V30 COUNTS 29 32 0 0 0
M  V30 BEGIN ATOM
M  V30 1 F 0.0 0.0 0.0 0
M  V30 2 C -1.3047 0.7523 0.0 0
M  V30 3 C -2.6095 0.0235 0.0 0
M  V30 4 C -1.3165 2.2569 0.0 0
M  V30 5 C -3.9143 0.7758 0.0 0
M  V30 6 C -2.6213 3.0092 0.0 0
M  V30 7 C -3.9261 2.2804 0.0 0
M  V30 8 C -5.2309 3.0327 0.0 0
M  V30 9 O -5.2426 4.5373 0.0 0
M  V30 10 C -6.5474 5.3014 0.0 0
M  V30 11 C -6.5591 6.806 0.0 0
M  V30 12 C -7.8522 4.5608 0.0 0
M  V30 13 C -7.8639 7.5583 0.0 0
M  V30 14 C -9.157 5.3249 0.0 0
M  V30 15 N -7.8757 9.0629 0.0 0
M  V30 16 C -9.1687 6.8295 0.0 0
M  V30 17 C -9.1805 9.8152 0.0 0
M  V30 18 O -10.4853 9.0747 0.0 0
M  V30 19 C -9.1922 11.3199 0.0 0
M  V30 20 C -7.911 12.0722 0.0 0
M  V30 21 C -10.497 12.0722 0.0 0
M  V30 22 C -7.9227 13.5768 0.0 0
M  V30 23 C -6.6297 11.3434 0.0 0
M  V30 24 N -10.5088 13.5768 0.0 0
M  V30 25 C -9.2275 14.3291 0.0 0
M  V30 26 C -6.6414 14.3291 0.0 0
M  V30 27 C -5.3484 12.0957 0.0 0
M  V30 28 O -9.2393 15.8337 0.0 0
M  V30 29 C -5.3602 13.6003 0.0 0
M  V30 END ATOM
M  V30 BEGIN BOND
M  V30 1 1 1 2
M  V30 2 2 2 3
M  V30 3 1 2 4
M  V30 4 1 3 5
M  V30 5 2 4 6
M  V30 6 2 5 7
M  V30 7 1 7 8
M  V30 8 1 8 9
M  V30 9 1 9 10
M  V30 10 2 10 11
M  V30 11 1 10 12
M  V30 12 1 11 13
M  V30 13 2 12 14
M  V30 14 1 13 15
M  V30 15 2 13 16
M  V30 16 1 15 17
M  V30 17 2 17 18
M  V30 18 1 17 19
M  V30 19 1 19 20
M  V30 20 2 19 21
M  V30 21 2 20 22
M  V30 22 1 20 23
M  V30 23 1 21 24
M  V30 24 1 22 25
M  V30 25 1 22 26
M  V30 26 2 23 27
M  V30 27 2 25 28
M  V30 28 2 26 29
M  V30 29 1 6 7
M  V30 30 1 14 16
M  V30 31 1 24 25
M  V30 32 1 27 29
M  V30 END BOND
M  V30 END CTAB
M  END
>  <Structure No>
822

>  <Catalog ID>
Z1815436119

>  <MW (desalted)>
388.391

>  <ClogP>
3.789

>  <HBD>
2

>  <TPSA>
67.430

>  <RotBonds>
5

>  <Target>
parp14

>  <fromRegid>


>  <Similarity>


$$$$
Compound 823
Actelion Java MolfileCreator 2.0

  0  0  0  0  0  0              0 V3000
M  V30 BEGIN CTAB
M  V30 COUNTS 21 23 0 0 0
M  V30 BEGIN ATOM
M  V30 1 O 0.0 0.0 0.0 0
M  V30 2 C -0.0117 1.5069 0.0 0
M  V30 3 N -1.3185 2.2721 0.0 0
M  V30 4 C 1.2714 2.2721 0.0 0
M  V30 5 C -1.3303 3.779 0.0 0
M  V30 6 C 1.2596 3.779 0.0 0
M  V30 7 C 2.5547 1.5304 0.0 0
M  V30 8 N -0.047 4.5325 0.0 0
M  V30 9 N -2.6371 4.5325 0.0 0
M  V30 10 C 2.5429 4.5325 0.0 0
M  V30 11 C 3.8379 2.2957 0.0 0
M  V30 12 C -3.9439 3.7908 0.0 0
M  V30 13 C 3.8261 3.7908 0.0 0
M  V30 14 C -5.2507 4.5443 0.0 0
M  V30 15 C -6.5575 3.8026 0.0 0
M  V30 16 N -7.8642 4.5561 0.0 0
M  V30 17 C -9.2417 3.9556 0.0 0
M  V30 18 C -8.0291 6.0512 0.0 0
M  V30 19 N -10.2541 5.0741 0.0 0
M  V30 20 C -9.5595 2.5076 0.0 0
M  V30 21 C -9.5007 6.3691 0.0 0
M  V30 END ATOM
M  V30 BEGIN BOND
M  V30 1 2 1 2
M  V30 2 1 2 3
M  V30 3 1 2 4
M  V30 4 1 3 5
M  V30 5 2 4 6
M  V30 6 1 4 7
M  V30 7 2 5 8
M  V30 8 1 5 9
M  V30 9 1 6 10
M  V30 10 2 7 11
M  V30 11 1 9 12
M  V30 12 2 10 13
M  V30 13 1 12 14
M  V30 14 1 14 15
M  V30 15 1 15 16
M  V30 16 1 16 17
M  V30 17 1 16 18
M  V30 18 2 17 19
M  V30 19 1 17 20
M  V30 20 2 18 21
M  V30 21 1 6 8
M  V30 22 1 11 13
M  V30 23 1 19 21
M  V30 END BOND
M  V30 END CTAB
M  END
>  <Structure No>
823

>  <Catalog ID>
Z1272450836

>  <MW (desalted)>
283.328

>  <ClogP>
1.374

>  <HBD>
2

>  <TPSA>
71.310

>  <RotBonds>
5

>  <Target>
parp2

>  <fromRegid>


>  <Similarity>


$$$$
Compound 824
Actelion Java MolfileCreator 2.0

  0  0  0  0  0  0              0 V3000
M  V30 BEGIN CTAB
M  V30 COUNTS 33 36 0 0 0
M  V30 BEGIN ATOM
M  V30 1 S 0.0 0.0 0.0 0
M  V30 2 O 0.7348 1.3155 0.0 0
M  V30 3 O -0.7585 -1.2918 0.0 0
M  V30 4 N -1.3155 0.7585 0.0 0
M  V30 5 C 1.2918 -0.7348 0.0 0
M  V30 6 C -2.6311 0.0237 0.0 0
M  V30 7 C 2.5837 0.0237 0.0 0
M  V30 8 C 1.28 -2.2282 0.0 0
M  V30 9 C -3.9467 0.7822 0.0 0 CFG=2
M  V30 10 C 3.8756 -0.7111 0.0 0
M  V30 11 C 2.5719 -2.9749 0.0 0
M  V30 12 O -4.1127 2.2874 0.0 0
M  V30 13 C -5.3334 0.1777 0.0 0
M  V30 14 C 5.1675 0.0474 0.0 0
M  V30 15 C 3.8638 -2.2045 0.0 0
M  V30 16 C -5.5942 2.6074 0.0 0
M  V30 17 C -6.3527 1.3037 0.0 0
M  V30 18 O 5.1557 1.5644 0.0 0
M  V30 19 N 6.4594 -0.6874 0.0 0
M  V30 20 C 7.7513 0.0711 0.0 0
M  V30 21 C 6.4476 -2.1808 0.0 0
M  V30 22 C 9.0432 -0.6637 0.0 0
M  V30 23 C 5.132 -2.9274 0.0 0
M  V30 24 N 10.3351 0.0948 0.0 0
M  V30 25 N 9.0313 -2.1571 0.0 0
M  V30 26 C 11.627 -0.64 0.0 0
M  V30 27 C 10.3232 -2.9037 0.0 0
M  V30 28 C 11.6151 -2.1333 0.0 0
M  V30 29 C 12.9189 0.1185 0.0 0
M  V30 30 O 10.3114 -4.3971 0.0 0
M  V30 31 C 12.907 -2.88 0.0 0
M  V30 32 C 14.2107 -0.6163 0.0 0
M  V30 33 C 14.1989 -2.1096 0.0 0
M  V30 END ATOM
M  V30 BEGIN BOND
M  V30 1 2 1 2
M  V30 2 2 1 3
M  V30 3 1 1 4
M  V30 4 1 1 5
M  V30 5 1 4 6
M  V30 6 2 5 7
M  V30 7 1 5 8
M  V30 8 1 9 6 CFG=1
M  V30 9 1 7 10
M  V30 10 2 8 11
M  V30 11 1 9 12
M  V30 12 1 9 13
M  V30 13 1 10 14
M  V30 14 2 10 15
M  V30 15 1 12 16
M  V30 16 1 13 17
M  V30 17 2 14 18
M  V30 18 1 14 19
M  V30 19 1 19 20
M  V30 20 1 19 21
M  V30 21 1 20 22
M  V30 22 1 21 23
M  V30 23 2 22 24
M  V30 24 1 22 25
M  V30 25 1 24 26
M  V30 26 1 25 27
M  V30 27 2 26 28
M  V30 28 1 26 29
M  V30 29 2 27 30
M  V30 30 1 28 31
M  V30 31 2 29 32
M  V30 32 2 31 33
M  V30 33 1 11 15
M  V30 34 1 16 17
M  V30 35 1 27 28
M  V30 36 1 32 33
M  V30 END BOND
M  V30 BEGIN COLLECTION
M  V30 MDLV30/STERAC1 ATOMS=(1 9)
M  V30 END COLLECTION
M  V30 END CTAB
M  END
>  <Structure No>
824

>  <Catalog ID>
Z101492120

>  <MW (desalted)>
470.541

>  <ClogP>
1.538

>  <HBD>
2

>  <TPSA>
117.170

>  <RotBonds>
7

>  <Target>
parp1

>  <fromRegid>


>  <Similarity>


$$$$
Compound 825
Actelion Java MolfileCreator 2.0

  0  0  0  0  0  0              0 V3000
M  V30 BEGIN CTAB
M  V30 COUNTS 33 35 0 0 0
M  V30 BEGIN ATOM
M  V30 1 S 0.0 0.0 0.0 0
M  V30 2 C -0.6277 -1.362 0.0 0
M  V30 3 C -1.1251 1.0185 0.0 0
M  V30 4 C -2.1319 -1.1962 0.0 0
M  V30 5 C 0.1065 -2.653 0.0 0 CFG=1
M  V30 6 C -2.4398 0.2842 0.0 0
M  V30 7 N 1.5989 -2.6412 0.0 0
M  V30 8 C -0.6514 -3.944 0.0 0
M  V30 9 C 2.3332 -3.9321 0.0 0
M  V30 10 C 0.0829 -5.235 0.0 0
M  V30 11 C -2.1674 -3.9321 0.0 0
M  V30 12 C 3.8256 -3.9203 0.0 0
M  V30 13 O 4.5717 -2.6056 0.0 0
M  V30 14 N 4.5717 -5.2113 0.0 0
M  V30 15 C 6.0641 -5.1995 0.0 0
M  V30 16 C 3.8019 -6.5023 0.0 0
M  V30 17 C 6.7984 -6.4904 0.0 0
M  V30 18 C 4.548 -7.7933 0.0 0
M  V30 19 N 6.0404 -7.7814 0.0 0
M  V30 20 C 6.7747 -9.0724 0.0 0
M  V30 21 C 6.0167 -10.3634 0.0 0
M  V30 22 O 6.751 -11.6544 0.0 0
M  V30 23 N 4.5007 -10.3516 0.0 0
M  V30 24 C 3.7308 -11.6426 0.0 0
M  V30 25 C 2.2148 -11.6307 0.0 0
M  V30 26 C 4.477 -12.9336 0.0 0
M  V30 27 C 1.4568 -12.9217 0.0 0
M  V30 28 C 1.4568 -10.3161 0.0 0
M  V30 29 C 3.7071 -14.2246 0.0 0
M  V30 30 C 2.1911 -14.2127 0.0 0
M  V30 31 F 0.6987 -9.0014 0.0 0
M  V30 32 F 2.7478 -9.558 0.0 0
M  V30 33 F 0.1421 -11.0504 0.0 0
M  V30 END ATOM
M  V30 BEGIN BOND
M  V30 1 1 1 2
M  V30 2 1 1 3
M  V30 3 2 2 4
M  V30 4 1 2 5
M  V30 5 2 3 6
M  V30 6 1 5 7 CFG=1
M  V30 7 1 5 8
M  V30 8 1 7 9
M  V30 9 1 8 10
M  V30 10 1 8 11
M  V30 11 1 9 12
M  V30 12 2 12 13
M  V30 13 1 12 14
M  V30 14 1 14 15
M  V30 15 1 14 16
M  V30 16 1 15 17
M  V30 17 1 16 18
M  V30 18 1 17 19
M  V30 19 1 19 20
M  V30 20 1 20 21
M  V30 21 2 21 22
M  V30 22 1 21 23
M  V30 23 1 23 24
M  V30 24 2 24 25
M  V30 25 1 24 26
M  V30 26 1 25 27
M  V30 27 1 25 28
M  V30 28 2 26 29
M  V30 29 2 27 30
M  V30 30 1 28 31
M  V30 31 1 28 32
M  V30 32 1 28 33
M  V30 33 1 4 6
M  V30 34 1 18 19
M  V30 35 1 29 30
M  V30 END BOND
M  V30 BEGIN COLLECTION
M  V30 MDLV30/STERAC1 ATOMS=(1 5)
M  V30 END COLLECTION
M  V30 END CTAB
M  END
>  <Structure No>
825

>  <Catalog ID>
Z106903142

>  <MW (desalted)>
482.562

>  <ClogP>
3.555

>  <HBD>
2

>  <TPSA>
64.680

>  <RotBonds>
9

>  <Target>
ATM

>  <fromRegid>


>  <Similarity>


$$$$
Compound 826
Actelion Java MolfileCreator 2.0

  0  0  0  0  0  0              0 V3000
M  V30 BEGIN CTAB
M  V30 COUNTS 21 23 0 0 0
M  V30 BEGIN ATOM
M  V30 1 S 0.0 0.0 0.0 0
M  V30 2 C -1.3137 0.7574 0.0 0
M  V30 3 C 1.29 0.7574 0.0 0
M  V30 4 C -2.6274 0.0236 0.0 0
M  V30 5 C -1.3255 2.2724 0.0 0
M  V30 6 C 2.5801 0.0236 0.0 0
M  V30 7 C -3.9412 0.7811 0.0 0
M  V30 8 C -2.6393 3.0298 0.0 0
M  V30 9 N 3.8701 0.7811 0.0 0
M  V30 10 N 2.5682 -1.4675 0.0 0
M  V30 11 O -5.2549 0.0473 0.0 0
M  V30 12 C -3.953 2.296 0.0 0
M  V30 13 C 5.1602 0.0473 0.0 0
M  V30 14 C 3.8583 -2.2132 0.0 0
M  V30 15 C -6.5686 0.8048 0.0 0
M  V30 16 C 5.1484 -1.4439 0.0 0
M  V30 17 C 6.4503 0.8048 0.0 0
M  V30 18 O 3.8465 -3.7044 0.0 0
M  V30 19 C 6.4384 -2.1895 0.0 0
M  V30 20 C 7.7403 0.071 0.0 0
M  V30 21 C 7.7285 -1.4202 0.0 0
M  V30 END ATOM
M  V30 BEGIN BOND
M  V30 1 1 1 2
M  V30 2 1 1 3
M  V30 3 2 2 4
M  V30 4 1 2 5
M  V30 5 1 3 6
M  V30 6 1 4 7
M  V30 7 2 5 8
M  V30 8 2 6 9
M  V30 9 1 6 10
M  V30 10 1 7 11
M  V30 11 2 7 12
M  V30 12 1 9 13
M  V30 13 1 10 14
M  V30 14 1 11 15
M  V30 15 2 13 16
M  V30 16 1 13 17
M  V30 17 2 14 18
M  V30 18 1 16 19
M  V30 19 2 17 20
M  V30 20 2 19 21
M  V30 21 1 8 12
M  V30 22 1 14 16
M  V30 23 1 20 21
M  V30 END BOND
M  V30 END CTAB
M  END
>  <Structure No>
826

>  <Catalog ID>
Z290602952

>  <MW (desalted)>
298.360

>  <ClogP>
2.385

>  <HBD>
1

>  <TPSA>
50.690

>  <RotBonds>
4

>  <Target>
CHK1

>  <fromRegid>


>  <Similarity>


$$$$
Compound 827
Actelion Java MolfileCreator 2.0

  0  0  0  0  0  0              0 V3000
M  V30 BEGIN CTAB
M  V30 COUNTS 30 33 0 0 0
M  V30 BEGIN ATOM
M  V30 1 O 0.0 0.0 0.0 0
M  V30 2 C -0.0118 -1.4949 0.0 0
M  V30 3 N 1.2813 -2.2305 0.0 0
M  V30 4 C -1.3288 -2.2305 0.0 0
M  V30 5 C 1.2695 -3.7255 0.0 0
M  V30 6 C -1.3407 -3.7255 0.0 0
M  V30 7 C -2.6458 -1.4712 0.0 0
M  V30 8 N -0.0474 -4.4611 0.0 0
M  V30 9 C 2.5627 -4.4611 0.0 0
M  V30 10 C -2.6576 -4.4611 0.0 0
M  V30 11 C -3.9627 -2.2068 0.0 0
M  V30 12 C 3.856 -3.7017 0.0 0
M  V30 13 C -3.9746 -3.7017 0.0 0
M  V30 14 C 5.1492 -4.4373 0.0 0
M  V30 15 O 5.1373 -5.9323 0.0 0
M  V30 16 N 6.4425 -3.678 0.0 0
M  V30 17 C 7.7357 -4.4136 0.0 0
M  V30 18 C 9.029 -3.6543 0.0 0
M  V30 19 C 10.3222 -4.3899 0.0 0
M  V30 20 C 9.0171 -2.1356 0.0 0
M  V30 21 C 11.6154 -3.6305 0.0 0
M  V30 22 C 10.3103 -1.3763 0.0 0
M  V30 23 O 12.9087 -4.3661 0.0 0
M  V30 24 N 11.6036 -2.1119 0.0 0
M  V30 25 C 14.2019 -3.6068 0.0 0
M  V30 26 C 14.1901 -2.0881 0.0 0
M  V30 27 C 15.4952 -4.3424 0.0 0
M  V30 28 C 15.4833 -1.3288 0.0 0
M  V30 29 C 16.7884 -3.5831 0.0 0
M  V30 30 C 16.7766 -2.0644 0.0 0
M  V30 END ATOM
M  V30 BEGIN BOND
M  V30 1 2 1 2
M  V30 2 1 2 3
M  V30 3 1 2 4
M  V30 4 1 3 5
M  V30 5 2 4 6
M  V30 6 1 4 7
M  V30 7 2 5 8
M  V30 8 1 5 9
M  V30 9 1 6 10
M  V30 10 2 7 11
M  V30 11 1 9 12
M  V30 12 2 10 13
M  V30 13 1 12 14
M  V30 14 2 14 15
M  V30 15 1 14 16
M  V30 16 1 16 17
M  V30 17 1 17 18
M  V30 18 2 18 19
M  V30 19 1 18 20
M  V30 20 1 19 21
M  V30 21 2 20 22
M  V30 22 1 21 23
M  V30 23 2 21 24
M  V30 24 1 23 25
M  V30 25 2 25 26
M  V30 26 1 25 27
M  V30 27 1 26 28
M  V30 28 2 27 29
M  V30 29 2 28 30
M  V30 30 1 6 8
M  V30 31 1 11 13
M  V30 32 1 22 24
M  V30 33 1 29 30
M  V30 END BOND
M  V30 END CTAB
M  END
>  <Structure No>
827

>  <Catalog ID>
Z424311150

>  <MW (desalted)>
400.430

>  <ClogP>
1.811

>  <HBD>
2

>  <TPSA>
92.680

>  <RotBonds>
7

>  <Target>
parp10

>  <fromRegid>


>  <Similarity>


$$$$
Compound 828
Actelion Java MolfileCreator 2.0

  0  0  0  0  0  0              0 V3000
M  V30 BEGIN CTAB
M  V30 COUNTS 24 26 0 0 0
M  V30 BEGIN ATOM
M  V30 1 O 0.0 0.0 0.0 0
M  V30 2 C -1.3144 -0.7341 0.0 0
M  V30 3 N -1.3262 -2.2262 0.0 0
M  V30 4 C -2.6288 0.0236 0.0 0
M  V30 5 N -3.9433 -0.7105 0.0 0
M  V30 6 C -5.2577 0.0473 0.0 0
M  V30 7 C -3.9551 -2.2025 0.0 0
M  V30 8 C -6.5722 -0.6868 0.0 0 CFG=2
M  V30 9 O -7.8866 0.071 0.0 0
M  V30 10 C -6.584 -2.1788 0.0 0
M  V30 11 C -9.201 -0.6631 0.0 0
M  V30 12 N -7.8984 -2.9249 0.0 0
M  V30 13 C -9.2129 -2.1552 0.0 0
M  V30 14 C -7.9103 -4.4169 0.0 0
M  V30 15 N -6.6195 -5.1511 0.0 0
M  V30 16 N -9.2247 -5.1511 0.0 0
M  V30 17 C -6.6314 -6.6432 0.0 0
M  V30 18 C -9.2366 -6.6432 0.0 0
M  V30 19 O -5.3406 -7.3774 0.0 0
M  V30 20 C -7.9458 -7.3774 0.0 0
M  V30 21 C -10.551 -7.3774 0.0 0
M  V30 22 C -7.9576 -8.8695 0.0 0
M  V30 23 C -10.5628 -8.8695 0.0 0
M  V30 24 C -9.2721 -9.6037 0.0 0
M  V30 END ATOM
M  V30 BEGIN BOND
M  V30 1 2 1 2
M  V30 2 1 2 3
M  V30 3 1 2 4
M  V30 4 1 4 5
M  V30 5 1 5 6
M  V30 6 1 5 7
M  V30 7 1 8 6 CFG=1
M  V30 8 1 8 9
M  V30 9 1 8 10
M  V30 10 1 9 11
M  V30 11 1 10 12
M  V30 12 1 11 13
M  V30 13 1 12 14
M  V30 14 1 14 15
M  V30 15 2 14 16
M  V30 16 2 15 17
M  V30 17 1 16 18
M  V30 18 1 17 19
M  V30 19 1 17 20
M  V30 20 2 18 21
M  V30 21 2 20 22
M  V30 22 1 21 23
M  V30 23 1 22 24
M  V30 24 1 12 13
M  V30 25 1 18 20
M  V30 26 2 23 24
M  V30 END BOND
M  V30 BEGIN COLLECTION
M  V30 MDLV30/STERAC1 ATOMS=(1 8)
M  V30 END COLLECTION
M  V30 END CTAB
M  END
>  <Structure No>
828

>  <Catalog ID>
Z2010615568

>  <MW (desalted)>
331.370

>  <ClogP>
1.210

>  <HBD>
2

>  <TPSA>
104.810

>  <RotBonds>
5

>  <Target>
parp10, Tankyrase1, parp2, parp3

>  <fromRegid>


>  <Similarity>


$$$$
Compound 829
Actelion Java MolfileCreator 2.0

  0  0  0  0  0  0              0 V3000
M  V30 BEGIN CTAB
M  V30 COUNTS 25 27 0 0 0
M  V30 BEGIN ATOM
M  V30 1 Cl 0.0 0.0 0.0 0
M  V30 2 C -0.0118 1.5161 0.0 0
M  V30 3 C -1.3266 2.2742 0.0 0
M  V30 4 C 1.2792 2.2742 0.0 0
M  V30 5 C -2.6414 1.5398 0.0 0
M  V30 6 C -1.3384 3.7904 0.0 0
M  V30 7 C 1.2674 3.7904 0.0 0
M  V30 8 O -2.6532 0.0473 0.0 0
M  V30 9 N -3.9562 2.2979 0.0 0
M  V30 10 C -0.0473 4.5484 0.0 0
M  V30 11 N 2.5585 4.5484 0.0 0
M  V30 12 C 3.8496 3.814 0.0 0
M  V30 13 O 3.8377 2.3216 0.0 0
M  V30 14 N 5.1407 4.5721 0.0 0
M  V30 15 C 6.4318 3.8377 0.0 0
M  V30 16 C 7.7229 4.5958 0.0 0
M  V30 17 C 9.014 3.8614 0.0 0
M  V30 18 C 7.7111 6.112 0.0 0
M  V30 19 C 10.3051 4.6195 0.0 0
M  V30 20 C 9.0022 2.369 0.0 0
M  V30 21 C 9.0022 6.8701 0.0 0
M  V30 22 N 10.2933 6.1357 0.0 0
M  V30 23 C 11.5962 3.8851 0.0 0
M  V30 24 C 10.2933 1.6346 0.0 0
M  V30 25 C 11.5844 2.3926 0.0 0
M  V30 END ATOM
M  V30 BEGIN BOND
M  V30 1 1 1 2
M  V30 2 2 2 3
M  V30 3 1 2 4
M  V30 4 1 3 5
M  V30 5 1 3 6
M  V30 6 2 4 7
M  V30 7 2 5 8
M  V30 8 1 5 9
M  V30 9 2 6 10
M  V30 10 1 7 11
M  V30 11 1 11 12
M  V30 12 2 12 13
M  V30 13 1 12 14
M  V30 14 1 14 15
M  V30 15 1 15 16
M  V30 16 1 16 17
M  V30 17 2 16 18
M  V30 18 1 17 19
M  V30 19 2 17 20
M  V30 20 1 18 21
M  V30 21 1 19 22
M  V30 22 2 19 23
M  V30 23 1 20 24
M  V30 24 1 23 25
M  V30 25 1 7 10
M  V30 26 2 21 22
M  V30 27 2 24 25
M  V30 END BOND
M  V30 END CTAB
M  END
>  <Structure No>
829

>  <Catalog ID>
Z1339215554

>  <MW (desalted)>
354.790

>  <ClogP>
1.654

>  <HBD>
3

>  <TPSA>
97.110

>  <RotBonds>
4

>  <Target>
parp14

>  <fromRegid>


>  <Similarity>


$$$$
Compound 830
Actelion Java MolfileCreator 2.0

  0  0  0  0  0  0              0 V3000
M  V30 BEGIN CTAB
M  V30 COUNTS 28 30 0 0 0
M  V30 BEGIN ATOM
M  V30 1 S 0.0 0.0 0.0 0
M  V30 2 O 1.2804 -0.7283 0.0 0
M  V30 3 O -0.7518 -1.2804 0.0 0
M  V30 4 N 0.74 1.3039 0.0 0
M  V30 5 C -1.3039 0.7518 0.0 0
M  V30 6 C -1.3156 2.2554 0.0 0
M  V30 7 C -2.6078 0.0234 0.0 0
M  V30 8 C -2.6196 3.019 0.0 0
M  V30 9 C -3.9118 0.7753 0.0 0
M  V30 10 C -3.9235 2.2789 0.0 0
M  V30 11 N -5.2275 3.0425 0.0 0
M  V30 12 C -6.5314 2.3024 0.0 0
M  V30 13 O -6.5432 0.8223 0.0 0
M  V30 14 C -7.8354 3.066 0.0 0 CFG=1
M  V30 15 S -9.1393 2.3259 0.0 0
M  V30 16 C -7.8471 4.5696 0.0 0
M  V30 17 C -10.4432 3.0895 0.0 0
M  V30 18 N -11.8177 2.4904 0.0 0
M  V30 19 N -10.6077 4.5814 0.0 0
M  V30 20 N -12.8279 3.6064 0.0 0
M  V30 21 C -12.0761 4.8985 0.0 0
M  V30 22 C -12.6987 6.273 0.0 0
M  V30 23 C -11.8294 7.4947 0.0 0
M  V30 24 C -14.1906 6.4374 0.0 0
M  V30 25 F -10.361 7.3537 0.0 0
M  V30 26 C -12.452 8.8691 0.0 0
M  V30 27 C -14.8132 7.8119 0.0 0
M  V30 28 C -13.9439 9.0336 0.0 0
M  V30 END ATOM
M  V30 BEGIN BOND
M  V30 1 2 1 2
M  V30 2 2 1 3
M  V30 3 1 1 4
M  V30 4 1 1 5
M  V30 5 2 5 6
M  V30 6 1 5 7
M  V30 7 1 6 8
M  V30 8 2 7 9
M  V30 9 2 8 10
M  V30 10 1 10 11
M  V30 11 1 11 12
M  V30 12 2 12 13
M  V30 13 1 12 14
M  V30 14 1 14 15 CFG=1
M  V30 15 1 14 16
M  V30 16 1 15 17
M  V30 17 2 17 18
M  V30 18 1 17 19
M  V30 19 1 18 20
M  V30 20 1 19 21
M  V30 21 1 21 22
M  V30 22 2 22 23
M  V30 23 1 22 24
M  V30 24 1 23 25
M  V30 25 1 23 26
M  V30 26 2 24 27
M  V30 27 2 26 28
M  V30 28 1 9 10
M  V30 29 2 20 21
M  V30 30 1 27 28
M  V30 END BOND
M  V30 BEGIN COLLECTION
M  V30 MDLV30/STERAC1 ATOMS=(1 14)
M  V30 END COLLECTION
M  V30 END CTAB
M  END
>  <Structure No>
830

>  <Catalog ID>
Z17357088

>  <MW (desalted)>
421.469

>  <ClogP>
1.520

>  <HBD>
3

>  <TPSA>
130.830

>  <RotBonds>
6

>  <Target>
CHK1

>  <fromRegid>


>  <Similarity>


$$$$
Compound 831
Actelion Java MolfileCreator 2.0

  0  0  0  0  0  0              0 V3000
M  V30 BEGIN CTAB
M  V30 COUNTS 26 29 0 0 0
M  V30 BEGIN ATOM
M  V30 1 O 0.0 0.0 0.0 0
M  V30 2 C 1.2918 0.7585 0.0 0
M  V30 3 N 2.5837 0.0118 0.0 0
M  V30 4 C 1.28 2.2755 0.0 0
M  V30 5 C 3.8755 0.7703 0.0 0
M  V30 6 O 2.5718 3.034 0.0 0
M  V30 7 C -0.0355 3.034 0.0 0
M  V30 8 C 3.8637 2.2874 0.0 0
M  V30 9 C 5.1674 0.0237 0.0 0
M  V30 10 C 5.1555 3.0459 0.0 0
M  V30 11 C 6.4592 0.7822 0.0 0
M  V30 12 C 6.4474 2.3111 0.0 0
M  V30 13 N 7.7511 0.0355 0.0 0
M  V30 14 C 7.7392 -1.4577 0.0 0
M  V30 15 O 6.4237 -2.2044 0.0 0
M  V30 16 N 9.0311 -2.2044 0.0 0
M  V30 17 C 9.0192 -3.6977 0.0 0
M  V30 18 C 10.323 -1.434 0.0 0
M  V30 19 C 10.3111 -4.4326 0.0 0
M  V30 20 C 11.6148 -2.1807 0.0 0
M  V30 21 N 10.2992 -5.9259 0.0 0
M  V30 22 C 11.603 -3.674 0.0 0
M  V30 23 C 11.5081 -6.8029 0.0 0
M  V30 24 C 9.0667 -6.8029 0.0 0
M  V30 25 C 11.0341 -8.2252 0.0 0
M  V30 26 C 9.517 -8.2252 0.0 0
M  V30 END ATOM
M  V30 BEGIN BOND
M  V30 1 2 1 2
M  V30 2 1 2 3
M  V30 3 1 2 4
M  V30 4 1 3 5
M  V30 5 1 4 6
M  V30 6 1 4 7
M  V30 7 2 5 8
M  V30 8 1 5 9
M  V30 9 1 8 10
M  V30 10 2 9 11
M  V30 11 2 10 12
M  V30 12 1 11 13
M  V30 13 1 13 14
M  V30 14 2 14 15
M  V30 15 1 14 16
M  V30 16 1 16 17
M  V30 17 1 16 18
M  V30 18 1 17 19
M  V30 19 1 18 20
M  V30 20 1 19 21
M  V30 21 1 19 22
M  V30 22 1 21 23
M  V30 23 1 21 24
M  V30 24 1 23 25
M  V30 25 1 24 26
M  V30 26 1 6 8
M  V30 27 1 11 12
M  V30 28 1 20 22
M  V30 29 1 25 26
M  V30 END BOND
M  V30 END CTAB
M  END
>  <Structure No>
831

>  <Catalog ID>
Z594856436

>  <MW (desalted)>
358.435

>  <ClogP>
1.327

>  <HBD>
2

>  <TPSA>
73.910

>  <RotBonds>
2

>  <Target>
parp3

>  <fromRegid>


>  <Similarity>


$$$$
Compound 832
Actelion Java MolfileCreator 2.0

  0  0  0  0  0  0              0 V3000
M  V30 BEGIN CTAB
M  V30 COUNTS 29 31 0 0 0
M  V30 BEGIN ATOM
M  V30 1 S 0.0 0.0 0.0 0
M  V30 2 O -0.7694 -1.2903 0.0 0
M  V30 3 O 0.7458 1.314 0.0 0
M  V30 4 N -1.314 0.7694 0.0 0
M  V30 5 C 1.2903 -0.7339 0.0 0
M  V30 6 C -2.6281 0.0236 0.0 0
M  V30 7 C 2.5807 0.0236 0.0 0
M  V30 8 C 1.2785 -2.2256 0.0 0
M  V30 9 C -3.9422 0.7931 0.0 0
M  V30 10 C -2.6399 -1.4679 0.0 0
M  V30 11 C 3.8711 -0.7103 0.0 0
M  V30 12 C 2.5689 -2.9596 0.0 0
M  V30 13 C -5.2562 0.0473 0.0 0
M  V30 14 C -3.954 -2.2137 0.0 0
M  V30 15 C 3.8593 -2.2019 0.0 0
M  V30 16 C -5.2681 -1.4442 0.0 0
M  V30 17 C -6.5821 -2.1901 0.0 0
M  V30 18 O -7.8962 -1.4324 0.0 0
M  V30 19 N -6.594 -3.6817 0.0 0
M  V30 20 C -7.908 -4.4157 0.0 0
M  V30 21 C -5.3036 -4.4157 0.0 0
M  V30 22 C -7.9199 -5.9073 0.0 0
M  V30 23 C -9.2221 -3.658 0.0 0
M  V30 24 C -5.3154 -5.9073 0.0 0
M  V30 25 C -4.025 -6.6413 0.0 0
M  V30 26 C -6.6295 -6.6413 0.0 0
M  V30 27 C -4.0369 -8.133 0.0 0
M  V30 28 C -6.6413 -8.133 0.0 0
M  V30 29 C -5.3509 -8.8669 0.0 0
M  V30 END ATOM
M  V30 BEGIN BOND
M  V30 1 2 1 2
M  V30 2 2 1 3
M  V30 3 1 1 4
M  V30 4 1 1 5
M  V30 5 1 4 6
M  V30 6 2 5 7
M  V30 7 1 5 8
M  V30 8 2 6 9
M  V30 9 1 6 10
M  V30 10 1 7 11
M  V30 11 2 8 12
M  V30 12 1 9 13
M  V30 13 2 10 14
M  V30 14 2 11 15
M  V30 15 2 13 16
M  V30 16 1 16 17
M  V30 17 2 17 18
M  V30 18 1 17 19
M  V30 19 1 19 20
M  V30 20 1 19 21
M  V30 21 1 20 22
M  V30 22 1 20 23
M  V30 23 1 21 24
M  V30 24 2 24 25
M  V30 25 1 24 26
M  V30 26 1 25 27
M  V30 27 2 26 28
M  V30 28 2 27 29
M  V30 29 1 12 15
M  V30 30 1 14 16
M  V30 31 1 28 29
M  V30 END BOND
M  V30 END CTAB
M  END
>  <Structure No>
832

>  <Catalog ID>
Z594991404

>  <MW (desalted)>
408.513

>  <ClogP>
4.428

>  <HBD>
1

>  <TPSA>
66.480

>  <RotBonds>
6

>  <Target>
Serine/threonine-protein kinase Chk2

>  <fromRegid>
CHEMBL3355482

>  <Similarity>
0.94

$$$$
Compound 833
Actelion Java MolfileCreator 2.0

  0  0  0  0  0  0              0 V3000
M  V30 BEGIN CTAB
M  V30 COUNTS 23 26 0 0 0
M  V30 BEGIN ATOM
M  V30 1 O 0.0 0.0 0.0 0
M  V30 2 C -0.7573 1.3135 0.0 0
M  V30 3 N -0.0236 2.6271 0.0 0
M  V30 4 C -2.2721 1.3253 0.0 0
M  V30 5 C 1.4674 2.6389 0.0 0
M  V30 6 C -3.0294 0.0355 0.0 0
M  V30 7 N 2.3431 3.8696 0.0 0
M  V30 8 N 2.3431 1.4319 0.0 0
M  V30 9 C -4.5442 0.0473 0.0 0
M  V30 10 C -2.2957 -1.2543 0.0 0
M  V30 11 C 3.7631 3.4199 0.0 0
M  V30 12 C 3.7631 1.9052 0.0 0
M  V30 13 C -5.3015 -1.2425 0.0 0
M  V30 14 C -3.0531 -2.5442 0.0 0
M  V30 15 C 5.053 4.1892 0.0 0
M  V30 16 C 5.053 1.1715 0.0 0
M  V30 17 O -6.8163 -1.2307 0.0 0
M  V30 18 C -4.5678 -2.5324 0.0 0
M  V30 19 C 6.3429 3.4436 0.0 0
M  V30 20 C 6.3429 1.9289 0.0 0
M  V30 21 C -7.5736 -2.5206 0.0 0
M  V30 22 O -5.3252 -3.8223 0.0 0
M  V30 23 C -6.8281 -3.8105 0.0 0
M  V30 END ATOM
M  V30 BEGIN BOND
M  V30 1 2 1 2
M  V30 2 1 2 3
M  V30 3 1 2 4
M  V30 4 1 3 5
M  V30 5 1 4 6
M  V30 6 2 5 7
M  V30 7 1 5 8
M  V30 8 2 6 9
M  V30 9 1 6 10
M  V30 10 1 7 11
M  V30 11 1 8 12
M  V30 12 1 9 13
M  V30 13 2 10 14
M  V30 14 1 11 15
M  V30 15 1 12 16
M  V30 16 1 13 17
M  V30 17 2 13 18
M  V30 18 2 15 19
M  V30 19 2 16 20
M  V30 20 1 17 21
M  V30 21 1 18 22
M  V30 22 1 21 23
M  V30 23 2 11 12
M  V30 24 1 14 18
M  V30 25 1 19 20
M  V30 26 1 22 23
M  V30 END BOND
M  V30 END CTAB
M  END
>  <Structure No>
833

>  <Catalog ID>
Z27664977

>  <MW (desalted)>
309.319

>  <ClogP>
2.874

>  <HBD>
2

>  <TPSA>
76.240

>  <RotBonds>
3

>  <Target>
DNA_pk

>  <fromRegid>


>  <Similarity>


$$$$
Compound 834
Actelion Java MolfileCreator 2.0

  0  0  0  0  0  0              0 V3000
M  V30 BEGIN CTAB
M  V30 COUNTS 28 30 0 0 0
M  V30 BEGIN ATOM
M  V30 1 S 0.0 0.0 0.0 0
M  V30 2 O 1.2803 -0.7282 0.0 0
M  V30 3 O -0.7517 -1.2803 0.0 0
M  V30 4 N -1.3038 0.7635 0.0 0
M  V30 5 C 0.74 1.3038 0.0 0
M  V30 6 C -1.3156 2.267 0.0 0 CFG=2
M  V30 7 C -2.6194 3.0306 0.0 0
M  V30 8 C -0.0352 3.0306 0.0 0
M  V30 9 N -2.6312 4.5341 0.0 0
M  V30 10 C -0.0469 4.5341 0.0 0
M  V30 11 C -3.935 5.2859 0.0 0
M  V30 12 C -1.3508 5.2859 0.0 0
M  V30 13 O -5.2389 4.5576 0.0 0
M  V30 14 N -3.9468 6.7895 0.0 0
M  V30 15 C -5.2507 7.5412 0.0 0
M  V30 16 C -5.2624 9.0448 0.0 0
M  V30 17 C -6.5545 6.8129 0.0 0
M  V30 18 C -6.5663 9.7966 0.0 0
M  V30 19 C -7.8584 7.5647 0.0 0
M  V30 20 C -7.8701 9.0683 0.0 0
M  V30 21 C -9.174 9.8201 0.0 0
M  V30 22 N -9.1858 11.3236 0.0 0
M  V30 23 C -10.4779 9.0918 0.0 0
M  V30 24 C -10.4896 12.0871 0.0 0
M  V30 25 C -11.7817 9.8436 0.0 0
M  V30 26 N -11.7935 11.3471 0.0 0
M  V30 27 C -10.5014 13.5907 0.0 0
M  V30 28 O -13.0856 9.1153 0.0 0
M  V30 END ATOM
M  V30 BEGIN BOND
M  V30 1 2 1 2
M  V30 2 2 1 3
M  V30 3 1 1 4
M  V30 4 1 1 5
M  V30 5 1 6 4 CFG=3
M  V30 6 1 6 7
M  V30 7 1 6 8
M  V30 8 1 7 9
M  V30 9 1 8 10
M  V30 10 1 9 11
M  V30 11 1 9 12
M  V30 12 2 11 13
M  V30 13 1 11 14
M  V30 14 1 14 15
M  V30 15 2 15 16
M  V30 16 1 15 17
M  V30 17 1 16 18
M  V30 18 2 17 19
M  V30 19 2 18 20
M  V30 20 1 20 21
M  V30 21 1 21 22
M  V30 22 2 21 23
M  V30 23 2 22 24
M  V30 24 1 23 25
M  V30 25 1 24 26
M  V30 26 1 24 27
M  V30 27 2 25 28
M  V30 28 1 10 12
M  V30 29 1 19 20
M  V30 30 1 25 26
M  V30 END BOND
M  V30 BEGIN COLLECTION
M  V30 MDLV30/STERAC1 ATOMS=(1 6)
M  V30 END COLLECTION
M  V30 END CTAB
M  END
>  <Structure No>
834

>  <Catalog ID>
Z595488312

>  <MW (desalted)>
405.471

>  <ClogP>
0.269

>  <HBD>
3

>  <TPSA>
119.970

>  <RotBonds>
3

>  <Target>
parp14

>  <fromRegid>


>  <Similarity>


$$$$
Compound 835
Actelion Java MolfileCreator 2.0

  0  0  0  0  0  0              0 V3000
M  V30 BEGIN CTAB
M  V30 COUNTS 28 31 0 0 0
M  V30 BEGIN ATOM
M  V30 1 O 0.0 0.0 0.0 0
M  V30 2 C 1.2944 0.76 0.0 0
M  V30 3 N 1.2825 2.2801 0.0 0
M  V30 4 C 2.5888 0.0237 0.0 0
M  V30 5 C 2.577 3.052 0.0 0
M  V30 6 C 3.8833 0.7837 0.0 0
M  V30 7 N 3.8714 2.3038 0.0 0
M  V30 8 C 2.5651 4.572 0.0 0
M  V30 9 C 5.1777 0.0475 0.0 0
M  V30 10 C 6.4721 0.8075 0.0 0
M  V30 11 C 5.1658 -1.4488 0.0 0
M  V30 12 C 7.7666 0.0712 0.0 0
M  V30 13 C 6.4603 -2.1851 0.0 0
M  V30 14 C 7.7547 -1.425 0.0 0
M  V30 15 N 9.0491 -2.1613 0.0 0
M  V30 16 C 9.0373 -3.6576 0.0 0
M  V30 17 O 7.7191 -4.3939 0.0 0
M  V30 18 N 10.3317 -4.3939 0.0 0
M  V30 19 C 10.3198 -5.8902 0.0 0
M  V30 20 C 11.6261 -3.6339 0.0 0
M  V30 21 C 11.6143 -6.6265 0.0 0 CFG=1
M  V30 22 C 12.9206 -4.3702 0.0 0
M  V30 23 N 11.6024 -8.1228 0.0 0
M  V30 24 C 12.9087 -5.8665 0.0 0
M  V30 25 C 12.8137 -9.0016 0.0 0
M  V30 26 C 10.3673 -9.0016 0.0 0
M  V30 27 C 12.3387 -10.4267 0.0 0
M  V30 28 C 10.8186 -10.4267 0.0 0
M  V30 END ATOM
M  V30 BEGIN BOND
M  V30 1 2 1 2
M  V30 2 1 2 3
M  V30 3 1 2 4
M  V30 4 1 3 5
M  V30 5 2 4 6
M  V30 6 2 5 7
M  V30 7 1 5 8
M  V30 8 1 6 9
M  V30 9 2 9 10
M  V30 10 1 9 11
M  V30 11 1 10 12
M  V30 12 2 11 13
M  V30 13 2 12 14
M  V30 14 1 14 15
M  V30 15 1 15 16
M  V30 16 2 16 17
M  V30 17 1 16 18
M  V30 18 1 18 19
M  V30 19 1 18 20
M  V30 20 1 19 21
M  V30 21 1 20 22
M  V30 22 1 21 23 CFG=3
M  V30 23 1 21 24
M  V30 24 1 23 25
M  V30 25 1 23 26
M  V30 26 1 25 27
M  V30 27 1 26 28
M  V30 28 1 6 7
M  V30 29 1 13 14
M  V30 30 1 22 24
M  V30 31 1 27 28
M  V30 END BOND
M  V30 BEGIN COLLECTION
M  V30 MDLV30/STERAC1 ATOMS=(1 21)
M  V30 END COLLECTION
M  V30 END CTAB
M  END
>  <Structure No>
835

>  <Catalog ID>
Z595488380

>  <MW (desalted)>
381.471

>  <ClogP>
1.403

>  <HBD>
2

>  <TPSA>
77.040

>  <RotBonds>
3

>  <Target>
parp14

>  <fromRegid>


>  <Similarity>


$$$$
Compound 836
Actelion Java MolfileCreator 2.0

  0  0  0  0  0  0              0 V3000
M  V30 BEGIN CTAB
M  V30 COUNTS 32 36 0 0 0
M  V30 BEGIN ATOM
M  V30 1 S 0.0 0.0 0.0 0
M  V30 2 C -1.3103 0.7555 0.0 0
M  V30 3 C 1.2867 0.7555 0.0 0 CFG=2
M  V30 4 N -2.6915 0.1534 0.0 0
M  V30 5 N -1.4756 2.2547 0.0 0
M  V30 6 C 2.5734 0.0236 0.0 0
M  V30 7 C 1.2749 2.2665 0.0 0
M  V30 8 N -3.7067 1.2749 0.0 0
M  V30 9 C -2.9512 2.5734 0.0 0
M  V30 10 C -0.3777 3.2699 0.0 0
M  V30 11 N 3.8601 0.7791 0.0 0
M  V30 12 N 2.5616 -1.4638 0.0 0
M  V30 13 C -3.5768 3.9546 0.0 0
M  V30 14 C -0.6964 4.7455 0.0 0
M  V30 15 C 5.1469 0.0472 0.0 0
M  V30 16 C 3.8483 -2.2075 0.0 0
M  V30 17 N -5.076 4.1198 0.0 0
M  V30 18 C -2.1366 5.2177 0.0 0
M  V30 19 C 0.4013 5.7607 0.0 0
M  V30 20 C 5.1351 -1.4401 0.0 0
M  V30 21 C 6.4336 0.8027 0.0 0
M  V30 22 O 3.8365 -3.6949 0.0 0
M  V30 23 C -6.0913 3.022 0.0 0
M  V30 24 C -5.8434 5.4302 0.0 0
M  V30 25 C -2.4554 6.6933 0.0 0
M  V30 26 C 0.0826 7.2363 0.0 0
M  V30 27 C 6.4218 -2.1838 0.0 0
M  V30 28 C 7.7203 0.0708 0.0 0
M  V30 29 C -7.4724 3.6476 0.0 0
M  V30 30 C -7.319 5.1351 0.0 0
M  V30 31 C -1.3575 7.7085 0.0 0
M  V30 32 C 7.7085 -1.4165 0.0 0
M  V30 END ATOM
M  V30 BEGIN BOND
M  V30 1 1 1 2
M  V30 2 1 3 1 CFG=1
M  V30 3 2 2 4
M  V30 4 1 2 5
M  V30 5 1 3 6
M  V30 6 1 3 7
M  V30 7 1 4 8
M  V30 8 1 5 9
M  V30 9 1 5 10
M  V30 10 2 6 11
M  V30 11 1 6 12
M  V30 12 1 9 13
M  V30 13 1 10 14
M  V30 14 1 11 15
M  V30 15 1 12 16
M  V30 16 1 13 17
M  V30 17 2 14 18
M  V30 18 1 14 19
M  V30 19 2 15 20
M  V30 20 1 15 21
M  V30 21 2 16 22
M  V30 22 1 17 23
M  V30 23 1 17 24
M  V30 24 1 18 25
M  V30 25 2 19 26
M  V30 26 1 20 27
M  V30 27 2 21 28
M  V30 28 1 23 29
M  V30 29 1 24 30
M  V30 30 2 25 31
M  V30 31 2 27 32
M  V30 32 2 8 9
M  V30 33 1 16 20
M  V30 34 1 26 31
M  V30 35 1 28 32
M  V30 36 1 29 30
M  V30 END BOND
M  V30 BEGIN COLLECTION
M  V30 MDLV30/STERAC1 ATOMS=(1 3)
M  V30 END COLLECTION
M  V30 END CTAB
M  END
>  <Structure No>
836

>  <Catalog ID>
Z17436133

>  <MW (desalted)>
446.568

>  <ClogP>
1.775

>  <HBD>
1

>  <TPSA>
75.410

>  <RotBonds>
7

>  <Target>
Tankyrase1

>  <fromRegid>


>  <Similarity>


$$$$
Compound 837
Actelion Java MolfileCreator 2.0

  0  0  0  0  0  0              0 V3000
M  V30 BEGIN CTAB
M  V30 COUNTS 29 33 0 0 0
M  V30 BEGIN ATOM
M  V30 1 S 0.0 0.0 0.0 0
M  V30 2 C -1.0122 1.1181 0.0 0
M  V30 3 C 1.3535 0.6238 0.0 0
M  V30 4 C -2.507 0.9769 0.0 0
M  V30 5 C -0.2824 2.4246 0.0 0
M  V30 6 C 1.1887 2.1186 0.0 0
M  V30 7 C 2.7071 0.0235 0.0 0
M  V30 8 N -3.2603 -0.306 0.0 0
M  V30 9 N -3.5192 2.095 0.0 0
M  V30 10 C 2.3893 3.0131 0.0 0
M  V30 11 C 3.9076 0.918 0.0 0
M  V30 12 N -4.7316 0.0117 0.0 0
M  V30 13 C -4.8963 1.4948 0.0 0
M  V30 14 C -3.225 3.5663 0.0 0
M  V30 15 C 3.7429 2.4128 0.0 0 CFG=2
M  V30 16 S -6.2028 2.2481 0.0 0
M  V30 17 C 4.9434 3.3074 0.0 0
M  V30 18 C -7.5093 1.5183 0.0 0
M  V30 19 C 6.297 2.7071 0.0 0
M  V30 20 C -8.8158 2.2716 0.0 0
M  V30 21 N -10.1223 1.5418 0.0 0
M  V30 22 N -8.8276 3.7782 0.0 0
M  V30 23 C -11.4288 2.2951 0.0 0
M  V30 24 C -10.1341 4.5315 0.0 0
M  V30 25 C -11.4406 3.8017 0.0 0
M  V30 26 C -12.8647 1.8479 0.0 0
M  V30 27 O -10.1458 6.038 0.0 0
M  V30 28 S -12.8765 4.2725 0.0 0
M  V30 29 C -13.7593 3.072 0.0 0
M  V30 END ATOM
M  V30 BEGIN BOND
M  V30 1 1 1 2
M  V30 2 1 1 3
M  V30 3 1 2 4
M  V30 4 2 2 5
M  V30 5 2 3 6
M  V30 6 1 3 7
M  V30 7 2 4 8
M  V30 8 1 4 9
M  V30 9 1 6 10
M  V30 10 1 7 11
M  V30 11 1 8 12
M  V30 12 1 9 13
M  V30 13 1 9 14
M  V30 14 1 10 15
M  V30 15 1 13 16
M  V30 16 1 15 17 CFG=1
M  V30 17 1 16 18
M  V30 18 1 17 19
M  V30 19 1 18 20
M  V30 20 2 20 21
M  V30 21 1 20 22
M  V30 22 1 21 23
M  V30 23 1 22 24
M  V30 24 2 23 25
M  V30 25 1 23 26
M  V30 26 2 24 27
M  V30 27 1 25 28
M  V30 28 2 26 29
M  V30 29 1 5 6
M  V30 30 1 11 15
M  V30 31 2 12 13
M  V30 32 1 24 25
M  V30 33 1 28 29
M  V30 END BOND
M  V30 BEGIN COLLECTION
M  V30 MDLV30/STERAC1 ATOMS=(1 15)
M  V30 END COLLECTION
M  V30 END CTAB
M  END
>  <Structure No>
837

>  <Catalog ID>
Z17460152

>  <MW (desalted)>
443.609

>  <ClogP>
3.918

>  <HBD>
1

>  <TPSA>
72.170

>  <RotBonds>
5

>  <Target>
Tankyrase1

>  <fromRegid>


>  <Similarity>


$$$$
Compound 838
Actelion Java MolfileCreator 2.0

  0  0  0  0  0  0              0 V3000
M  V30 BEGIN CTAB
M  V30 COUNTS 24 25 0 0 0
M  V30 BEGIN ATOM
M  V30 1 F 0.0 0.0 0.0 0
M  V30 2 C -1.302 0.7507 0.0 0
M  V30 3 F -2.0528 -0.5278 0.0 0
M  V30 4 F -0.563 2.0528 0.0 0
M  V30 5 C -2.6041 1.5014 0.0 0
M  V30 6 C -2.6158 3.0029 0.0 0
M  V30 7 C -3.9062 0.7742 0.0 0
M  V30 8 C -3.9179 3.7654 0.0 0
M  V30 9 C -5.2083 1.5249 0.0 0
M  V30 10 C -5.22 3.0264 0.0 0
M  V30 11 N -6.5221 3.7889 0.0 0
M  V30 12 C -7.8242 3.0499 0.0 0
M  V30 13 C -9.1263 3.8124 0.0 0
M  V30 14 O -9.138 5.3139 0.0 0
M  V30 15 N -10.4283 3.0733 0.0 0
M  V30 16 C -11.7304 3.8358 0.0 0
M  V30 17 C -13.0325 3.0968 0.0 0
M  V30 18 C -11.7421 5.3373 0.0 0
M  V30 19 C -14.3346 3.8593 0.0 0
M  V30 20 C -13.0442 6.0881 0.0 0
M  V30 21 C -15.6367 3.1203 0.0 0
M  V30 22 C -14.3463 5.3608 0.0 0
M  V30 23 O -15.6484 1.6422 0.0 0
M  V30 24 C -16.9387 3.8827 0.0 0
M  V30 END ATOM
M  V30 BEGIN BOND
M  V30 1 1 1 2
M  V30 2 1 2 3
M  V30 3 1 2 4
M  V30 4 1 2 5
M  V30 5 2 5 6
M  V30 6 1 5 7
M  V30 7 1 6 8
M  V30 8 2 7 9
M  V30 9 2 8 10
M  V30 10 1 10 11
M  V30 11 1 11 12
M  V30 12 1 12 13
M  V30 13 2 13 14
M  V30 14 1 13 15
M  V30 15 1 15 16
M  V30 16 2 16 17
M  V30 17 1 16 18
M  V30 18 1 17 19
M  V30 19 2 18 20
M  V30 20 1 19 21
M  V30 21 2 19 22
M  V30 22 2 21 23
M  V30 23 1 21 24
M  V30 24 1 9 10
M  V30 25 1 20 22
M  V30 END BOND
M  V30 END CTAB
M  END
>  <Structure No>
838

>  <Catalog ID>
Z30984288

>  <MW (desalted)>
336.308

>  <ClogP>
3.712

>  <HBD>
2

>  <TPSA>
58.200

>  <RotBonds>
6

>  <Target>
parp14

>  <fromRegid>


>  <Similarity>


$$$$
Compound 839
Actelion Java MolfileCreator 2.0

  0  0  0  0  0  0              0 V3000
M  V30 BEGIN CTAB
M  V30 COUNTS 22 25 0 0 0
M  V30 BEGIN ATOM
M  V30 1 S 0.0 0.0 0.0 0
M  V30 2 C -0.7527 -1.282 0.0 0
M  V30 3 C -1.0115 1.1174 0.0 0
M  V30 4 N -2.223 -0.9645 0.0 0
M  V30 5 C -0.1529 -2.6347 0.0 0
M  V30 6 C -2.3877 0.5175 0.0 0
M  V30 7 C -1.0468 -3.8345 0.0 0
M  V30 8 C -3.6933 1.282 0.0 0
M  V30 9 C -0.4469 -5.1871 0.0 0
M  V30 10 C -2.5406 -3.6698 0.0 0
M  V30 11 C -4.999 0.541 0.0 0
M  V30 12 C -3.7051 2.7876 0.0 0
M  V30 13 C -1.3409 -6.3869 0.0 0
M  V30 14 C -3.4346 -4.8696 0.0 0
M  V30 15 C -6.3046 1.3056 0.0 0
M  V30 16 C -5.0107 3.5522 0.0 0
M  V30 17 C -2.8347 -6.2222 0.0 0
M  V30 18 N -7.7396 0.8586 0.0 0
M  V30 19 C -6.3163 2.8112 0.0 0
M  V30 20 C -8.6335 2.0819 0.0 0
M  V30 21 N -7.7513 3.2816 0.0 0
M  V30 22 O -10.1391 2.0936 0.0 0
M  V30 END ATOM
M  V30 BEGIN BOND
M  V30 1 1 1 2
M  V30 2 1 1 3
M  V30 3 2 2 4
M  V30 4 1 2 5
M  V30 5 2 3 6
M  V30 6 1 5 7
M  V30 7 1 6 8
M  V30 8 2 7 9
M  V30 9 1 7 10
M  V30 10 2 8 11
M  V30 11 1 8 12
M  V30 12 1 9 13
M  V30 13 2 10 14
M  V30 14 1 11 15
M  V30 15 2 12 16
M  V30 16 2 13 17
M  V30 17 1 15 18
M  V30 18 2 15 19
M  V30 19 1 18 20
M  V30 20 1 19 21
M  V30 21 2 20 22
M  V30 22 1 4 6
M  V30 23 1 14 17
M  V30 24 1 16 19
M  V30 25 1 20 21
M  V30 END BOND
M  V30 END CTAB
M  END
>  <Structure No>
839

>  <Catalog ID>
Z118608364

>  <MW (desalted)>
307.370

>  <ClogP>
3.637

>  <HBD>
2

>  <TPSA>
54.020

>  <RotBonds>
3

>  <Target>
parp14

>  <fromRegid>


>  <Similarity>


$$$$
Compound 840
Actelion Java MolfileCreator 2.0

  0  0  0  0  0  0              0 V3000
M  V30 BEGIN CTAB
M  V30 COUNTS 18 20 0 0 0
M  V30 BEGIN ATOM
M  V30 1 F 0.0 0.0 0.0 0
M  V30 2 C -1.3065 0.7533 0.0 0
M  V30 3 C -1.3182 2.2599 0.0 0
M  V30 4 C -2.613 0.0235 0.0 0
M  V30 5 N -0.0353 3.025 0.0 0
M  V30 6 C -2.6248 3.025 0.0 0
M  V30 7 C -3.9195 0.7768 0.0 0
M  V30 8 C -0.047 4.5316 0.0 0
M  V30 9 C -3.9313 2.2834 0.0 0
M  V30 10 N -1.3536 5.2849 0.0 0
M  V30 11 C 1.2358 5.2849 0.0 0
M  V30 12 C -1.3653 6.7915 0.0 0
M  V30 13 C 1.2241 6.7915 0.0 0
M  V30 14 C 2.5188 4.5434 0.0 0
M  V30 15 N -0.0823 7.5448 0.0 0
M  V30 16 C 2.5071 7.5448 0.0 0
M  V30 17 C 3.8018 5.2967 0.0 0
M  V30 18 C 3.79 6.8151 0.0 0
M  V30 END ATOM
M  V30 BEGIN BOND
M  V30 1 1 1 2
M  V30 2 2 2 3
M  V30 3 1 2 4
M  V30 4 1 3 5
M  V30 5 1 3 6
M  V30 6 2 4 7
M  V30 7 1 5 8
M  V30 8 2 6 9
M  V30 9 2 8 10
M  V30 10 1 8 11
M  V30 11 1 10 12
M  V30 12 1 11 13
M  V30 13 2 11 14
M  V30 14 2 12 15
M  V30 15 2 13 16
M  V30 16 1 14 17
M  V30 17 1 16 18
M  V30 18 1 7 9
M  V30 19 1 13 15
M  V30 20 2 17 18
M  V30 END BOND
M  V30 END CTAB
M  END
>  <Structure No>
840

>  <Catalog ID>
Z62503121

>  <MW (desalted)>
239.248

>  <ClogP>
4.042

>  <HBD>
1

>  <TPSA>
37.810

>  <RotBonds>
2

>  <Target>
Serine/threonine-protein kinase Chk1

>  <fromRegid>
CHEMBL289959

>  <Similarity>
0.85

$$$$
Compound 841
Actelion Java MolfileCreator 2.0

  0  0  0  0  0  0              0 V3000
M  V30 BEGIN CTAB
M  V30 COUNTS 17 18 0 0 0
M  V30 BEGIN ATOM
M  V30 1 O 0.0 0.0 0.0 0
M  V30 2 C 1.2868 0.7555 0.0 0
M  V30 3 N 2.5736 0.0236 0.0 0
M  V30 4 N 1.2749 2.2666 0.0 0
M  V30 5 C 2.5617 -1.4638 0.0 0
M  V30 6 C -0.0354 3.0222 0.0 0
M  V30 7 C 1.2513 -2.2076 0.0 0
M  V30 8 C 3.8486 -2.2076 0.0 0
M  V30 9 C -1.2868 2.184 0.0 0
M  V30 10 C 0.059 4.5333 0.0 0
M  V30 11 N 1.2395 -3.6951 0.0 0
M  V30 12 C 3.8367 -3.6951 0.0 0
M  V30 13 C -2.727 2.6326 0.0 0
M  V30 14 C -1.0506 5.5604 0.0 0
M  V30 15 C 2.5263 -4.427 0.0 0
M  V30 16 C -3.2819 4.0374 0.0 0
M  V30 17 C -2.5499 5.3479 0.0 0
M  V30 END ATOM
M  V30 BEGIN BOND
M  V30 1 2 1 2
M  V30 2 1 2 3
M  V30 3 1 2 4
M  V30 4 1 3 5
M  V30 5 1 4 6
M  V30 6 2 5 7
M  V30 7 1 5 8
M  V30 8 1 6 9
M  V30 9 1 6 10
M  V30 10 1 7 11
M  V30 11 2 8 12
M  V30 12 1 9 13
M  V30 13 1 10 14
M  V30 14 2 11 15
M  V30 15 1 13 16
M  V30 16 1 14 17
M  V30 17 1 12 15
M  V30 18 1 16 17
M  V30 END BOND
M  V30 END CTAB
M  END
>  <Structure No>
841

>  <Catalog ID>
Z166730522

>  <MW (desalted)>
233.309

>  <ClogP>
3.166

>  <HBD>
2

>  <TPSA>
54.020

>  <RotBonds>
2

>  <Target>
Serine/threonine-protein kinase Chk2

>  <fromRegid>
CHEMBL1998193

>  <Similarity>
0.86

$$$$
Compound 842
Actelion Java MolfileCreator 2.0

  0  0  0  0  0  0              0 V3000
M  V30 BEGIN CTAB
M  V30 COUNTS 24 28 0 0 0
M  V30 BEGIN ATOM
M  V30 1 S 0.0 0.0 0.0 0
M  V30 2 C 1.472 -0.2849 0.0 0
M  V30 3 C -0.7479 -1.3058 0.0 0
M  V30 4 N 2.671 0.6291 0.0 0
M  V30 5 C 1.6382 -1.7688 0.0 0
M  V30 6 C 0.2611 -2.398 0.0 0
M  V30 7 C -2.2318 -1.6263 0.0 0
M  V30 8 C 4.0481 0.0474 0.0 0
M  V30 9 C 3.0153 -2.3505 0.0 0
M  V30 10 C -0.1899 -3.8226 0.0 0
M  V30 11 C -2.6829 -3.0509 0.0 0 CFG=2
M  V30 12 O 5.2472 0.9615 0.0 0
M  V30 13 N 4.2143 -1.4364 0.0 0
M  V30 14 N 3.4902 -3.7632 0.0 0
M  V30 15 C -1.6738 -4.1431 0.0 0
M  V30 16 C -4.1669 -3.3715 0.0 0
M  V30 17 N 5.4371 -2.2912 0.0 0
M  V30 18 C 4.986 -3.7276 0.0 0
M  V30 19 C 5.8763 -4.9266 0.0 0
M  V30 20 C 7.3603 -4.7367 0.0 0
M  V30 21 C 5.2709 -6.3037 0.0 0
M  V30 22 C 8.2507 -5.9357 0.0 0
M  V30 23 C 6.1613 -7.5027 0.0 0
M  V30 24 C 7.6452 -7.3128 0.0 0
M  V30 END ATOM
M  V30 BEGIN BOND
M  V30 1 1 1 2
M  V30 2 1 1 3
M  V30 3 1 2 4
M  V30 4 2 2 5
M  V30 5 2 3 6
M  V30 6 1 3 7
M  V30 7 1 4 8
M  V30 8 1 5 9
M  V30 9 1 6 10
M  V30 10 1 7 11
M  V30 11 2 8 12
M  V30 12 1 8 13
M  V30 13 2 9 14
M  V30 14 1 10 15
M  V30 15 1 11 16 CFG=3
M  V30 16 1 13 17
M  V30 17 1 14 18
M  V30 18 1 18 19
M  V30 19 2 19 20
M  V30 20 1 19 21
M  V30 21 1 20 22
M  V30 22 2 21 23
M  V30 23 2 22 24
M  V30 24 1 5 6
M  V30 25 1 9 13
M  V30 26 1 11 15
M  V30 27 2 17 18
M  V30 28 1 23 24
M  V30 END BOND
M  V30 BEGIN COLLECTION
M  V30 MDLV30/STERAC1 ATOMS=(1 11)
M  V30 END COLLECTION
M  V30 END CTAB
M  END
>  <Structure No>
842

>  <Catalog ID>
Z55410908

>  <MW (desalted)>
336.411

>  <ClogP>
2.908

>  <HBD>
1

>  <TPSA>
59.810

>  <RotBonds>
1

>  <Target>
Serine/threonine-protein kinase Chk2

>  <fromRegid>
CHEMBL2007592

>  <Similarity>
0.98

$$$$
Compound 843
Actelion Java MolfileCreator 2.0

  0  0  0  0  0  0              0 V3000
M  V30 BEGIN CTAB
M  V30 COUNTS 25 29 0 0 0
M  V30 BEGIN ATOM
M  V30 1 S 0.0 0.0 0.0 0
M  V30 2 C -1.4669 0.3403 0.0 0
M  V30 3 C 0.751 1.2908 0.0 0
M  V30 4 N -2.6991 -0.5046 0.0 0
M  V30 5 C -1.6077 1.8424 0.0 0
M  V30 6 C -0.2347 2.4291 0.0 0
M  V30 7 C 2.2296 1.373 0.0 0
M  V30 8 C -4.0603 0.1408 0.0 0
M  V30 9 C -2.969 2.4878 0.0 0
M  V30 10 C 0.0234 3.9078 0.0 0
M  V30 11 C 3.0981 2.5934 0.0 0
M  V30 12 O -5.2925 -0.7041 0.0 0
M  V30 13 N -4.2012 1.6429 0.0 0
M  V30 14 N -3.4149 3.9195 0.0 0
M  V30 15 C 1.326 4.6236 0.0 0
M  V30 16 C 2.6873 4.0369 0.0 0
M  V30 17 N -5.4099 2.5465 0.0 0
M  V30 18 C -4.917 3.9547 0.0 0
M  V30 19 C -5.7854 5.1869 0.0 0
M  V30 20 C -5.1635 6.5482 0.0 0
M  V30 21 C -7.2875 5.0696 0.0 0
M  V30 22 C -6.0319 7.7804 0.0 0
M  V30 23 C -8.1559 6.3018 0.0 0
M  V30 24 C -7.534 7.6631 0.0 0
M  V30 25 F -8.4024 8.8953 0.0 0
M  V30 END ATOM
M  V30 BEGIN BOND
M  V30 1 1 1 2
M  V30 2 1 1 3
M  V30 3 1 2 4
M  V30 4 2 2 5
M  V30 5 2 3 6
M  V30 6 1 3 7
M  V30 7 1 4 8
M  V30 8 1 5 9
M  V30 9 1 6 10
M  V30 10 1 7 11
M  V30 11 2 8 12
M  V30 12 1 8 13
M  V30 13 2 9 14
M  V30 14 1 10 15
M  V30 15 1 11 16
M  V30 16 1 13 17
M  V30 17 1 14 18
M  V30 18 1 18 19
M  V30 19 2 19 20
M  V30 20 1 19 21
M  V30 21 1 20 22
M  V30 22 2 21 23
M  V30 23 2 22 24
M  V30 24 1 24 25
M  V30 25 1 5 6
M  V30 26 1 9 13
M  V30 27 1 15 16
M  V30 28 2 17 18
M  V30 29 1 23 24
M  V30 END BOND
M  V30 END CTAB
M  END
>  <Structure No>
843

>  <Catalog ID>
Z55411176

>  <MW (desalted)>
354.401

>  <ClogP>
3.098

>  <HBD>
1

>  <TPSA>
59.810

>  <RotBonds>
1

>  <Target>
Serine/threonine-protein kinase Chk2

>  <fromRegid>
CHEMBL2007592

>  <Similarity>
0.95

$$$$
Compound 844
Actelion Java MolfileCreator 2.0

  0  0  0  0  0  0              0 V3000
M  V30 BEGIN CTAB
M  V30 COUNTS 30 33 0 0 0
M  V30 BEGIN ATOM
M  V30 1 O 0.0 0.0 0.0 0
M  V30 2 C 0.4488 -1.4174 0.0 0
M  V30 3 N -0.4488 -2.6222 0.0 0
M  V30 4 C 1.8662 -1.8662 0.0 0
M  V30 5 C 0.4252 -3.827 0.0 0
M  V30 6 C -1.9607 -2.6103 0.0 0
M  V30 7 C 1.8544 -3.3545 0.0 0
M  V30 8 C 3.1537 -1.1103 0.0 0
M  V30 9 O -0.0472 -5.2444 0.0 0
M  V30 10 C 3.1419 -4.0868 0.0 0
M  V30 11 C 4.4412 -1.8426 0.0 0
M  V30 12 C 4.4294 -3.3309 0.0 0
M  V30 13 C 5.7287 -1.0866 0.0 0
M  V30 14 O 7.0161 -1.819 0.0 0
M  V30 15 N 5.7168 0.4252 0.0 0
M  V30 16 C 7.0043 1.1811 0.0 0
M  V30 17 C 6.9925 2.693 0.0 0
M  V30 18 C 5.6814 3.449 0.0 0
M  V30 19 C 8.28 3.449 0.0 0
M  V30 20 C 5.6696 4.9609 0.0 0
M  V30 21 C 4.3703 2.7167 0.0 0
M  V30 22 C 8.2682 4.9609 0.0 0
M  V30 23 C 6.9571 5.7168 0.0 0
M  V30 24 N 3.0592 3.4726 0.0 0
M  V30 25 C 1.7481 2.7403 0.0 0
M  V30 26 C 3.0474 4.9845 0.0 0
M  V30 27 C 0.437 3.4962 0.0 0 CFG=2
M  V30 28 C 1.7363 5.7405 0.0 0
M  V30 29 C 0.4252 5.0081 0.0 0
M  V30 30 C -0.874 2.7639 0.0 0
M  V30 END ATOM
M  V30 BEGIN BOND
M  V30 1 2 1 2
M  V30 2 1 2 3
M  V30 3 1 2 4
M  V30 4 1 3 5
M  V30 5 1 3 6
M  V30 6 2 4 7
M  V30 7 1 4 8
M  V30 8 2 5 9
M  V30 9 1 7 10
M  V30 10 2 8 11
M  V30 11 2 10 12
M  V30 12 1 11 13
M  V30 13 2 13 14
M  V30 14 1 13 15
M  V30 15 1 15 16
M  V30 16 1 16 17
M  V30 17 2 17 18
M  V30 18 1 17 19
M  V30 19 1 18 20
M  V30 20 1 18 21
M  V30 21 2 19 22
M  V30 22 2 20 23
M  V30 23 1 21 24
M  V30 24 1 24 25
M  V30 25 1 24 26
M  V30 26 1 25 27
M  V30 27 1 26 28
M  V30 28 1 27 29
M  V30 29 1 27 30 CFG=1
M  V30 30 1 5 7
M  V30 31 1 11 12
M  V30 32 1 22 23
M  V30 33 1 28 29
M  V30 END BOND
M  V30 BEGIN COLLECTION
M  V30 MDLV30/STERAC1 ATOMS=(1 27)
M  V30 END COLLECTION
M  V30 END CTAB
M  END
>  <Structure No>
844

>  <Catalog ID>
Z424498332

>  <MW (desalted)>
405.489

>  <ClogP>
4.151

>  <HBD>
1

>  <TPSA>
69.720

>  <RotBonds>
5

>  <Target>
Poly [ADP-ribose] polymerase-1

>  <fromRegid>
CHEMBL598088

>  <Similarity>
0.89

$$$$
Compound 845
Actelion Java MolfileCreator 2.0

  0  0  0  0  0  0              0 V3000
M  V30 BEGIN CTAB
M  V30 COUNTS 26 28 0 0 0
M  V30 BEGIN ATOM
M  V30 1 Cl 0.0 0.0 0.0 0
M  V30 2 C -0.0118 -1.4959 0.0 0
M  V30 3 C 1.2822 -2.232 0.0 0
M  V30 4 C -1.3297 -2.232 0.0 0
M  V30 5 C 1.2703 -3.7279 0.0 0
M  V30 6 C -1.3415 -3.7279 0.0 0
M  V30 7 C -0.0474 -4.4758 0.0 0
M  V30 8 C 2.5644 -4.4758 0.0 0
M  V30 9 C 3.8585 -3.7041 0.0 0 CFG=1
M  V30 10 N 5.1525 -4.4521 0.0 0
M  V30 11 C 3.8466 -2.1845 0.0 0
M  V30 12 C 6.4466 -3.6804 0.0 0
M  V30 13 O 6.4348 -2.1607 0.0 0
M  V30 14 C 7.7407 -4.4283 0.0 0
M  V30 15 C 9.0348 -3.6566 0.0 0
M  V30 16 C 10.3289 -4.4046 0.0 0
M  V30 17 N 11.623 -3.6329 0.0 0
M  V30 18 N 10.317 -5.9005 0.0 0
M  V30 19 C 12.9171 -4.3808 0.0 0
M  V30 20 C 11.6111 -6.6366 0.0 0
M  V30 21 C 12.9052 -5.8768 0.0 0
M  V30 22 C 14.2111 -3.6091 0.0 0
M  V30 23 O 11.5992 -8.1325 0.0 0
M  V30 24 C 14.1993 -6.6128 0.0 0
M  V30 25 C 15.5052 -4.3571 0.0 0
M  V30 26 C 15.4934 -5.853 0.0 0
M  V30 END ATOM
M  V30 BEGIN BOND
M  V30 1 1 1 2
M  V30 2 2 2 3
M  V30 3 1 2 4
M  V30 4 1 3 5
M  V30 5 2 4 6
M  V30 6 2 5 7
M  V30 7 1 5 8
M  V30 8 1 8 9
M  V30 9 1 9 10 CFG=3
M  V30 10 1 9 11
M  V30 11 1 10 12
M  V30 12 2 12 13
M  V30 13 1 12 14
M  V30 14 1 14 15
M  V30 15 1 15 16
M  V30 16 2 16 17
M  V30 17 1 16 18
M  V30 18 1 17 19
M  V30 19 1 18 20
M  V30 20 2 19 21
M  V30 21 1 19 22
M  V30 22 2 20 23
M  V30 23 1 21 24
M  V30 24 2 22 25
M  V30 25 2 24 26
M  V30 26 1 6 7
M  V30 27 1 20 21
M  V30 28 1 25 26
M  V30 END BOND
M  V30 BEGIN COLLECTION
M  V30 MDLV30/STERAC1 ATOMS=(1 9)
M  V30 END COLLECTION
M  V30 END CTAB
M  END
>  <Structure No>
845

>  <Catalog ID>
Z424623072

>  <MW (desalted)>
369.845

>  <ClogP>
2.301

>  <HBD>
2

>  <TPSA>
70.560

>  <RotBonds>
6

>  <Target>
Poly [ADP-ribose] polymerase-1

>  <fromRegid>
CHEMBL3092553

>  <Similarity>
0.87

$$$$
Compound 846
Actelion Java MolfileCreator 2.0

  0  0  0  0  0  0              0 V3000
M  V30 BEGIN CTAB
M  V30 COUNTS 26 28 0 0 0
M  V30 BEGIN ATOM
M  V30 1 Cl 0.0 0.0 0.0 0
M  V30 2 C -1.3153 -0.7347 0.0 0
M  V30 3 C -1.3272 -2.2278 0.0 0
M  V30 4 C -2.6307 0.0237 0.0 0
M  V30 5 C -2.6426 -2.9744 0.0 0
M  V30 6 C -0.0355 -2.9744 0.0 0
M  V30 7 C -3.9461 -0.711 0.0 0
M  V30 8 C -3.9579 -2.2041 0.0 0
M  V30 9 C 1.2561 -2.2041 0.0 0 CFG=1
M  V30 10 N 2.5478 -2.9507 0.0 0
M  V30 11 C 1.2442 -0.6873 0.0 0
M  V30 12 C 3.8394 -2.1804 0.0 0
M  V30 13 O 3.8276 -0.6636 0.0 0
M  V30 14 C 5.1311 -2.927 0.0 0
M  V30 15 C 6.4228 -2.1567 0.0 0
M  V30 16 C 7.7145 -2.9033 0.0 0
M  V30 17 N 9.0061 -2.133 0.0 0
M  V30 18 N 7.7026 -4.3964 0.0 0
M  V30 19 C 10.2978 -2.8796 0.0 0
M  V30 20 C 8.9943 -5.1311 0.0 0
M  V30 21 C 10.286 -4.3727 0.0 0
M  V30 22 C 11.5895 -2.1093 0.0 0
M  V30 23 O 8.9824 -6.6242 0.0 0
M  V30 24 C 11.5776 -5.1074 0.0 0
M  V30 25 C 12.8812 -2.8559 0.0 0
M  V30 26 C 12.8693 -4.349 0.0 0
M  V30 END ATOM
M  V30 BEGIN BOND
M  V30 1 1 1 2
M  V30 2 2 2 3
M  V30 3 1 2 4
M  V30 4 1 3 5
M  V30 5 1 3 6
M  V30 6 2 4 7
M  V30 7 2 5 8
M  V30 8 1 6 9
M  V30 9 1 9 10 CFG=3
M  V30 10 1 9 11
M  V30 11 1 10 12
M  V30 12 2 12 13
M  V30 13 1 12 14
M  V30 14 1 14 15
M  V30 15 1 15 16
M  V30 16 2 16 17
M  V30 17 1 16 18
M  V30 18 1 17 19
M  V30 19 1 18 20
M  V30 20 2 19 21
M  V30 21 1 19 22
M  V30 22 2 20 23
M  V30 23 1 21 24
M  V30 24 2 22 25
M  V30 25 2 24 26
M  V30 26 1 7 8
M  V30 27 1 20 21
M  V30 28 1 25 26
M  V30 END BOND
M  V30 BEGIN COLLECTION
M  V30 MDLV30/STERAC1 ATOMS=(1 9)
M  V30 END COLLECTION
M  V30 END CTAB
M  END
>  <Structure No>
846

>  <Catalog ID>
Z424464254

>  <MW (desalted)>
369.845

>  <ClogP>
2.301

>  <HBD>
2

>  <TPSA>
70.560

>  <RotBonds>
6

>  <Target>
parp15

>  <fromRegid>


>  <Similarity>


$$$$
Compound 847
Actelion Java MolfileCreator 2.0

  0  0  0  0  0  0              0 V3000
M  V30 BEGIN CTAB
M  V30 COUNTS 26 27 0 0 0
M  V30 BEGIN ATOM
M  V30 1 F 0.0 0.0 0.0 0
M  V30 2 C -1.3062 0.7649 0.0 0
M  V30 3 C -1.318 2.2712 0.0 0
M  V30 4 C -2.6125 0.0235 0.0 0
M  V30 5 C -2.6243 3.0244 0.0 0
M  V30 6 C -3.9188 0.7884 0.0 0
M  V30 7 C -3.9305 2.2947 0.0 0
M  V30 8 C -5.2368 3.0479 0.0 0
M  V30 9 N -6.5431 2.3183 0.0 0
M  V30 10 C -7.8493 3.0714 0.0 0
M  V30 11 O -7.8611 4.5778 0.0 0
M  V30 12 N -9.1556 2.3418 0.0 0
M  V30 13 C -10.4619 3.095 0.0 0
M  V30 14 C -11.7681 2.3654 0.0 0
M  V30 15 C -13.0744 3.1185 0.0 0
M  V30 16 C -11.7799 0.8826 0.0 0
M  V30 17 C -14.3807 2.3889 0.0 0
M  V30 18 C -13.0862 0.1412 0.0 0
M  V30 19 C -14.3924 0.9061 0.0 0
M  V30 20 C -15.6987 0.1647 0.0 0
M  V30 21 O -17.005 0.9296 0.0 0
M  V30 22 N -15.7105 -1.318 0.0 0
M  V30 23 C -17.0167 -2.0476 0.0 0
M  V30 24 C -17.0285 -3.5304 0.0 0
M  V30 25 O -15.7458 -4.26 0.0 0
M  V30 26 N -18.3348 -4.26 0.0 0
M  V30 END ATOM
M  V30 BEGIN BOND
M  V30 1 1 1 2
M  V30 2 2 2 3
M  V30 3 1 2 4
M  V30 4 1 3 5
M  V30 5 2 4 6
M  V30 6 2 5 7
M  V30 7 1 7 8
M  V30 8 1 8 9
M  V30 9 1 9 10
M  V30 10 2 10 11
M  V30 11 1 10 12
M  V30 12 1 12 13
M  V30 13 1 13 14
M  V30 14 2 14 15
M  V30 15 1 14 16
M  V30 16 1 15 17
M  V30 17 2 16 18
M  V30 18 2 17 19
M  V30 19 1 19 20
M  V30 20 2 20 21
M  V30 21 1 20 22
M  V30 22 1 22 23
M  V30 23 1 23 24
M  V30 24 2 24 25
M  V30 25 1 24 26
M  V30 26 1 6 7
M  V30 27 1 18 19
M  V30 END BOND
M  V30 END CTAB
M  END
>  <Structure No>
847

>  <Catalog ID>
Z595788254

>  <MW (desalted)>
358.367

>  <ClogP>
0.629

>  <HBD>
4

>  <TPSA>
113.320

>  <RotBonds>
7

>  <Target>
ATM

>  <fromRegid>


>  <Similarity>


$$$$
Compound 848
Actelion Java MolfileCreator 2.0

  0  0  0  0  0  0              0 V3000
M  V30 BEGIN CTAB
M  V30 COUNTS 30 33 0 0 0
M  V30 BEGIN ATOM
M  V30 1 Cl 0.0 0.0 0.0 0
M  V30 2 C 1.4843 -0.1425 0.0 0
M  V30 3 C 2.09 -1.5081 0.0 0
M  V30 4 C 2.3631 1.0925 0.0 0
M  V30 5 C 3.5743 -1.6506 0.0 0
M  V30 6 C 3.8475 0.95 0.0 0
M  V30 7 C 4.4531 -0.4156 0.0 0
M  V30 8 N 5.9375 -0.5581 0.0 0
M  V30 9 C 6.8162 0.6768 0.0 0
M  V30 10 O 6.1868 2.0662 0.0 0
M  V30 11 C 8.3006 0.5343 0.0 0
M  V30 12 S 9.2981 1.6625 0.0 0
M  V30 13 N 9.0368 -0.76 0.0 0
M  V30 14 C 10.6637 1.0568 0.0 0
M  V30 15 N 10.4975 -0.4393 0.0 0
M  V30 16 C 11.9581 1.8287 0.0 0
M  V30 17 N 13.2525 1.0806 0.0 0
M  V30 18 C 14.5469 1.8525 0.0 0
M  V30 19 C 13.2406 -0.4156 0.0 0
M  V30 20 C 15.8412 1.1043 0.0 0
M  V30 21 N 17.1356 1.8762 0.0 0
M  V30 22 N 15.8294 -0.3918 0.0 0
M  V30 23 C 18.43 1.1281 0.0 0
M  V30 24 C 17.1237 -1.14 0.0 0
M  V30 25 C 18.4181 -0.3681 0.0 0
M  V30 26 C 19.7244 1.9 0.0 0
M  V30 27 O 17.1119 -2.6362 0.0 0
M  V30 28 C 19.7125 -1.1162 0.0 0
M  V30 29 C 21.0187 1.1518 0.0 0
M  V30 30 C 21.0069 -0.3443 0.0 0
M  V30 END ATOM
M  V30 BEGIN BOND
M  V30 1 1 1 2
M  V30 2 2 2 3
M  V30 3 1 2 4
M  V30 4 1 3 5
M  V30 5 2 4 6
M  V30 6 2 5 7
M  V30 7 1 7 8
M  V30 8 1 8 9
M  V30 9 2 9 10
M  V30 10 1 9 11
M  V30 11 1 11 12
M  V30 12 2 11 13
M  V30 13 1 12 14
M  V30 14 1 13 15
M  V30 15 1 14 16
M  V30 16 1 16 17
M  V30 17 1 17 18
M  V30 18 1 17 19
M  V30 19 1 18 20
M  V30 20 2 20 21
M  V30 21 1 20 22
M  V30 22 1 21 23
M  V30 23 1 22 24
M  V30 24 2 23 25
M  V30 25 1 23 26
M  V30 26 2 24 27
M  V30 27 1 25 28
M  V30 28 2 26 29
M  V30 29 2 28 30
M  V30 30 1 6 7
M  V30 31 2 14 15
M  V30 32 1 24 25
M  V30 33 1 29 30
M  V30 END BOND
M  V30 END CTAB
M  END
>  <Structure No>
848

>  <Catalog ID>
Z195595720

>  <MW (desalted)>
440.906

>  <ClogP>
1.448

>  <HBD>
2

>  <TPSA>
99.580

>  <RotBonds>
6

>  <Target>
parp2

>  <fromRegid>


>  <Similarity>


$$$$
Compound 849
Actelion Java MolfileCreator 2.0

  0  0  0  0  0  0              0 V3000
M  V30 BEGIN CTAB
M  V30 COUNTS 33 35 0 0 0
M  V30 BEGIN ATOM
M  V30 1 S 0.0 0.0 0.0 0
M  V30 2 C -1.3096 -0.7433 0.0 0
M  V30 3 C 1.286 -0.7433 0.0 0
M  V30 4 N -1.4748 -2.2181 0.0 0
M  V30 5 N -2.6901 -0.1179 0.0 0
M  V30 6 C 2.5721 0.0235 0.0 0
M  V30 7 C -2.9497 -2.5131 0.0 0
M  V30 8 C -3.7048 -1.2152 0.0 0
M  V30 9 C -3.0087 1.3568 0.0 0
M  V30 10 O 2.5603 1.5338 0.0 0
M  V30 11 N 3.8582 -0.7197 0.0 0
M  V30 12 C -3.7048 -3.7992 0.0 0
M  V30 13 C -5.215 -1.2034 0.0 0
M  V30 14 C -4.4481 1.8288 0.0 0
M  V30 15 C 5.1442 0.0471 0.0 0
M  V30 16 C -5.215 -3.7874 0.0 0
M  V30 17 C -5.982 -2.4895 0.0 0
M  V30 18 C -4.7667 3.3036 0.0 0
M  V30 19 C 5.1324 1.5574 0.0 0
M  V30 20 C 6.4303 -0.6961 0.0 0
M  V30 21 C -7.4922 -2.4777 0.0 0
M  V30 22 C 6.4185 2.3125 0.0 0
M  V30 23 C 7.7164 0.0707 0.0 0
M  V30 24 F -9.0025 -2.4659 0.0 0
M  V30 25 F -7.504 -0.9675 0.0 0
M  V30 26 F -7.504 -3.9644 0.0 0
M  V30 27 C 6.4067 3.8228 0.0 0
M  V30 28 C 7.7046 1.5692 0.0 0
M  V30 29 C 9.0025 -0.6725 0.0 0
M  V30 30 O 7.6928 4.5779 0.0 0
M  V30 31 N 5.097 4.5779 0.0 0
M  V30 32 O 10.2885 0.0943 0.0 0
M  V30 33 N 8.9907 -2.1591 0.0 0
M  V30 END ATOM
M  V30 BEGIN BOND
M  V30 1 1 1 2
M  V30 2 1 1 3
M  V30 3 2 2 4
M  V30 4 1 2 5
M  V30 5 1 3 6
M  V30 6 1 4 7
M  V30 7 1 5 8
M  V30 8 1 5 9
M  V30 9 2 6 10
M  V30 10 1 6 11
M  V30 11 1 7 12
M  V30 12 1 8 13
M  V30 13 1 9 14
M  V30 14 1 11 15
M  V30 15 2 12 16
M  V30 16 2 13 17
M  V30 17 1 14 18
M  V30 18 2 15 19
M  V30 19 1 15 20
M  V30 20 1 17 21
M  V30 21 1 19 22
M  V30 22 2 20 23
M  V30 23 1 21 24
M  V30 24 1 21 25
M  V30 25 1 21 26
M  V30 26 1 22 27
M  V30 27 2 22 28
M  V30 28 1 23 29
M  V30 29 2 27 30
M  V30 30 1 27 31
M  V30 31 2 29 32
M  V30 32 1 29 33
M  V30 33 2 7 8
M  V30 34 1 16 17
M  V30 35 1 23 28
M  V30 END BOND
M  V30 END CTAB
M  END
>  <Structure No>
849

>  <Catalog ID>
Z17554810

>  <MW (desalted)>
479.475

>  <ClogP>
2.802

>  <HBD>
3

>  <TPSA>
133.100

>  <RotBonds>
9

>  <Target>
parp14

>  <fromRegid>


>  <Similarity>


$$$$
Compound 850
Actelion Java MolfileCreator 2.0

  0  0  0  0  0  0              0 V3000
M  V30 BEGIN CTAB
M  V30 COUNTS 24 25 0 0 0
M  V30 BEGIN ATOM
M  V30 1 O 0.0 0.0 0.0 0
M  V30 2 C 1.2836 -0.7301 0.0 0
M  V30 3 N 1.2718 -2.2139 0.0 0
M  V30 4 C 2.5672 0.0235 0.0 0
M  V30 5 C 2.5555 1.5309 0.0 0
M  V30 6 C 3.8509 -0.7065 0.0 0
M  V30 7 O 1.2483 2.2964 0.0 0
M  V30 8 C 3.8391 2.2964 0.0 0
M  V30 9 C 5.1345 0.0471 0.0 0
M  V30 10 C -0.0588 1.5545 0.0 0
M  V30 11 C 5.1227 1.5545 0.0 0
M  V30 12 C -1.366 2.3199 0.0 0
M  V30 13 C 6.4064 2.3199 0.0 0
M  V30 14 O -1.3778 3.8273 0.0 0
M  V30 15 N -2.6732 1.578 0.0 0
M  V30 16 C -3.9804 2.3435 0.0 0
M  V30 17 C -5.2876 1.6016 0.0 0
M  V30 18 C -3.9922 3.8509 0.0 0
M  V30 19 C -6.5948 2.367 0.0 0
M  V30 20 C -5.2994 4.6046 0.0 0
M  V30 21 C -7.902 1.6251 0.0 0
M  V30 22 C -6.6066 3.8744 0.0 0
M  V30 23 O -7.9138 0.1413 0.0 0
M  V30 24 C -9.2092 2.3906 0.0 0
M  V30 END ATOM
M  V30 BEGIN BOND
M  V30 1 2 1 2
M  V30 2 1 2 3
M  V30 3 1 2 4
M  V30 4 2 4 5
M  V30 5 1 4 6
M  V30 6 1 5 7
M  V30 7 1 5 8
M  V30 8 2 6 9
M  V30 9 1 7 10
M  V30 10 2 8 11
M  V30 11 1 10 12
M  V30 12 1 11 13
M  V30 13 2 12 14
M  V30 14 1 12 15
M  V30 15 1 15 16
M  V30 16 2 16 17
M  V30 17 1 16 18
M  V30 18 1 17 19
M  V30 19 2 18 20
M  V30 20 1 19 21
M  V30 21 2 19 22
M  V30 22 2 21 23
M  V30 23 1 21 24
M  V30 24 1 9 11
M  V30 25 1 20 22
M  V30 END BOND
M  V30 END CTAB
M  END
>  <Structure No>
850

>  <Catalog ID>
Z217920874

>  <MW (desalted)>
326.347

>  <ClogP>
1.790

>  <HBD>
2

>  <TPSA>
98.490

>  <RotBonds>
6

>  <Target>
parp14

>  <fromRegid>


>  <Similarity>


$$$$
Compound 851
Actelion Java MolfileCreator 2.0

  0  0  0  0  0  0              0 V3000
M  V30 BEGIN CTAB
M  V30 COUNTS 21 22 0 0 0
M  V30 BEGIN ATOM
M  V30 1 S 0.0 0.0 0.0 0
M  V30 2 C 1.3651 -0.6054 0.0 0
M  V30 3 C -1.0209 -1.104 0.0 0
M  V30 4 N 1.1989 -2.0893 0.0 0
M  V30 5 N 2.6591 0.1543 0.0 0
M  V30 6 C -0.273 -2.3979 0.0 0
M  V30 7 C 3.9531 -0.5935 0.0 0
M  V30 8 C -0.9022 -3.7631 0.0 0
M  V30 9 O 3.9412 -2.0893 0.0 0
M  V30 10 C 5.2471 0.1661 0.0 0
M  V30 11 C -2.4098 -3.9056 0.0 0
M  V30 12 C -0.0237 -4.974 0.0 0
M  V30 13 C 6.541 -0.5816 0.0 0
M  V30 14 C -3.039 -5.2708 0.0 0
M  V30 15 C -0.6529 -6.3392 0.0 0
M  V30 16 C 7.835 0.178 0.0 0
M  V30 17 C -2.1605 -6.4817 0.0 0
M  V30 18 O 9.129 -0.5698 0.0 0
M  V30 19 C -2.7897 -7.8469 0.0 0
M  V30 20 C 10.4229 0.1899 0.0 0
M  V30 21 C -1.9112 -9.0577 0.0 0
M  V30 END ATOM
M  V30 BEGIN BOND
M  V30 1 1 1 2
M  V30 2 1 1 3
M  V30 3 2 2 4
M  V30 4 1 2 5
M  V30 5 2 3 6
M  V30 6 1 5 7
M  V30 7 1 6 8
M  V30 8 2 7 9
M  V30 9 1 7 10
M  V30 10 2 8 11
M  V30 11 1 8 12
M  V30 12 1 10 13
M  V30 13 1 11 14
M  V30 14 2 12 15
M  V30 15 1 13 16
M  V30 16 2 14 17
M  V30 17 1 16 18
M  V30 18 1 17 19
M  V30 19 1 18 20
M  V30 20 1 19 21
M  V30 21 1 4 6
M  V30 22 1 15 17
M  V30 END BOND
M  V30 END CTAB
M  END
>  <Structure No>
851

>  <Catalog ID>
Z441879904

>  <MW (desalted)>
304.407

>  <ClogP>
3.976

>  <HBD>
1

>  <TPSA>
51.220

>  <RotBonds>
7

>  <Target>
Poly [ADP-ribose] polymerase-1

>  <fromRegid>
CHEMBL452158

>  <Similarity>
0.9

$$$$
Compound 852
Actelion Java MolfileCreator 2.0

  0  0  0  0  0  0              0 V3000
M  V30 BEGIN CTAB
M  V30 COUNTS 27 29 0 0 0
M  V30 BEGIN ATOM
M  V30 1 S 0.0 0.0 0.0 0
M  V30 2 O -1.2235 -0.8706 0.0 0
M  V30 3 O 1.2 0.8941 0.0 0
M  V30 4 N 0.8706 -1.2 0.0 0
M  V30 5 C -0.8941 1.2235 0.0 0
M  V30 6 C 0.247 -2.553 0.0 0
M  V30 7 C -2.4001 1.2353 0.0 0
M  V30 8 C -0.447 2.6589 0.0 0
M  V30 9 C -1.2471 -2.6942 0.0 0
M  V30 10 C 1.1177 -3.7531 0.0 0
M  V30 11 N -2.8707 2.6707 0.0 0
M  V30 12 C -1.6706 3.5531 0.0 0
M  V30 13 F -2.1412 -1.4706 0.0 0
M  V30 14 C -1.8706 -4.0472 0.0 0
M  V30 15 C 0.4941 -5.1061 0.0 0
M  V30 16 C -1.6824 5.059 0.0 0
M  V30 17 C -1.0 -5.2473 0.0 0
M  V30 18 O -0.4 5.812 0.0 0
M  V30 19 N -2.9883 5.812 0.0 0
M  V30 20 C -3.0001 7.318 0.0 0
M  V30 21 C -4.3061 8.071 0.0 0
M  V30 22 C -5.612 7.3297 0.0 0
M  V30 23 C -4.3178 9.5769 0.0 0
M  V30 24 C -6.918 8.0827 0.0 0
M  V30 25 C -5.6238 5.8473 0.0 0
M  V30 26 C -5.6238 10.3299 0.0 0
M  V30 27 C -6.9297 9.5887 0.0 0
M  V30 END ATOM
M  V30 BEGIN BOND
M  V30 1 2 1 2
M  V30 2 2 1 3
M  V30 3 1 1 4
M  V30 4 1 1 5
M  V30 5 1 4 6
M  V30 6 2 5 7
M  V30 7 1 5 8
M  V30 8 2 6 9
M  V30 9 1 6 10
M  V30 10 1 7 11
M  V30 11 2 8 12
M  V30 12 1 9 13
M  V30 13 1 9 14
M  V30 14 2 10 15
M  V30 15 1 12 16
M  V30 16 2 14 17
M  V30 17 2 16 18
M  V30 18 1 16 19
M  V30 19 1 19 20
M  V30 20 1 20 21
M  V30 21 2 21 22
M  V30 22 1 21 23
M  V30 23 1 22 24
M  V30 24 1 22 25
M  V30 25 2 23 26
M  V30 26 2 24 27
M  V30 27 1 11 12
M  V30 28 1 15 17
M  V30 29 1 26 27
M  V30 END BOND
M  V30 END CTAB
M  END
>  <Structure No>
852

>  <Catalog ID>
Z425067588

>  <MW (desalted)>
387.428

>  <ClogP>
3.152

>  <HBD>
3

>  <TPSA>
91.060

>  <RotBonds>
5

>  <Target>
CHK1

>  <fromRegid>


>  <Similarity>


$$$$
Compound 853
Actelion Java MolfileCreator 2.0

  0  0  0  0  0  0              0 V3000
M  V30 BEGIN CTAB
M  V30 COUNTS 24 24 0 0 0
M  V30 BEGIN ATOM
M  V30 1 F 0.0 0.0 0.0 0
M  V30 2 C 0.9788 -1.1303 0.0 0
M  V30 3 F 2.1091 -0.1281 0.0 0
M  V30 4 F -0.1747 -2.1091 0.0 0
M  V30 5 C 1.9577 -2.2606 0.0 0
M  V30 6 C 3.4259 -1.9693 0.0 0
M  V30 7 C 1.4566 -3.6706 0.0 0
M  V30 8 C 4.4048 -3.0997 0.0 0
M  V30 9 C 2.4354 -4.801 0.0 0
M  V30 10 C 3.9037 -4.5097 0.0 0
M  V30 11 C 5.8731 -2.8083 0.0 0
M  V30 12 C 6.8519 -3.9387 0.0 0
M  V30 13 C 8.3202 -3.6473 0.0 0
M  V30 14 N 9.2991 -4.7777 0.0 0
M  V30 15 C 10.7673 -4.4864 0.0 0
M  V30 16 O 11.2451 -3.053 0.0 0
M  V30 17 N 11.7462 -5.6167 0.0 0
M  V30 18 C 13.2145 -5.3254 0.0 0
M  V30 19 C 14.1933 -6.4557 0.0 0
M  V30 20 C 13.6922 -3.8921 0.0 0
M  V30 21 O 13.6922 -7.8657 0.0 0
M  V30 22 N 15.6616 -6.1644 0.0 0
M  V30 23 O 12.6901 -2.7384 0.0 0
M  V30 24 N 15.1605 -3.6007 0.0 0
M  V30 END ATOM
M  V30 BEGIN BOND
M  V30 1 1 1 2
M  V30 2 1 2 3
M  V30 3 1 2 4
M  V30 4 1 2 5
M  V30 5 2 5 6
M  V30 6 1 5 7
M  V30 7 1 6 8
M  V30 8 2 7 9
M  V30 9 2 8 10
M  V30 10 1 8 11
M  V30 11 1 11 12
M  V30 12 1 12 13
M  V30 13 1 13 14
M  V30 14 1 14 15
M  V30 15 2 15 16
M  V30 16 1 15 17
M  V30 17 1 17 18
M  V30 18 1 18 19
M  V30 19 1 18 20
M  V30 20 2 19 21
M  V30 21 1 19 22
M  V30 22 2 20 23
M  V30 23 1 20 24
M  V30 24 1 9 10
M  V30 END BOND
M  V30 END CTAB
M  END
>  <Structure No>
853

>  <Catalog ID>
Z840884170

>  <MW (desalted)>
346.305

>  <ClogP>
0.525

>  <HBD>
4

>  <TPSA>
127.310

>  <RotBonds>
8

>  <Target>
ATM

>  <fromRegid>


>  <Similarity>


$$$$
Compound 854
Actelion Java MolfileCreator 2.0

  0  0  0  0  0  0              0 V3000
M  V30 BEGIN CTAB
M  V30 COUNTS 33 37 0 0 0
M  V30 BEGIN ATOM
M  V30 1 S 0.0 0.0 0.0 0
M  V30 2 C -1.4354 -0.4471 0.0 0
M  V30 3 C 0.2941 1.4707 0.0 0
M  V30 4 N -1.9061 -1.859 0.0 0
M  V30 5 N -2.6591 0.4471 0.0 0
M  V30 6 C 1.706 1.9414 0.0 0
M  V30 7 N -3.4121 -1.8472 0.0 0
M  V30 8 C -2.6709 1.9531 0.0 0
M  V30 9 C -3.8828 -0.4235 0.0 0
M  V30 10 O 2.9062 1.0707 0.0 0
M  V30 11 N 2.1531 3.3768 0.0 0
M  V30 12 C -1.3884 2.7062 0.0 0
M  V30 13 C -3.9769 2.7062 0.0 0
M  V30 14 C -5.3182 0.047 0.0 0
M  V30 15 N 4.1063 1.9649 0.0 0
M  V30 16 C 3.6357 3.3886 0.0 0
M  V30 17 C -1.4001 4.2122 0.0 0
M  V30 18 C -3.9887 4.2122 0.0 0
M  V30 19 C -6.436 -0.9412 0.0 0
M  V30 20 C -5.6359 1.5178 0.0 0
M  V30 21 C 4.5064 4.6123 0.0 0
M  V30 22 C -2.7062 4.9653 0.0 0
M  V30 23 C -7.8715 -0.4706 0.0 0
M  V30 24 C -7.0714 1.9884 0.0 0
M  V30 25 C 3.8828 5.9889 0.0 0
M  V30 26 C 5.9771 4.4711 0.0 0
M  V30 27 O -2.7179 6.4713 0.0 0
M  V30 28 N -8.1892 1.0001 0.0 0
M  V30 29 C 4.7535 7.2126 0.0 0
M  V30 30 C 6.8478 5.6948 0.0 0
M  V30 31 C -4.024 7.2243 0.0 0
M  V30 32 C 6.2242 7.0714 0.0 0
M  V30 33 C 7.0949 8.2951 0.0 0
M  V30 END ATOM
M  V30 BEGIN BOND
M  V30 1 1 1 2
M  V30 2 1 1 3
M  V30 3 2 2 4
M  V30 4 1 2 5
M  V30 5 1 3 6
M  V30 6 1 4 7
M  V30 7 1 5 8
M  V30 8 1 5 9
M  V30 9 1 6 10
M  V30 10 2 6 11
M  V30 11 2 8 12
M  V30 12 1 8 13
M  V30 13 1 9 14
M  V30 14 1 10 15
M  V30 15 1 11 16
M  V30 16 1 12 17
M  V30 17 2 13 18
M  V30 18 2 14 19
M  V30 19 1 14 20
M  V30 20 1 16 21
M  V30 21 2 17 22
M  V30 22 1 19 23
M  V30 23 2 20 24
M  V30 24 2 21 25
M  V30 25 1 21 26
M  V30 26 1 22 27
M  V30 27 2 23 28
M  V30 28 1 25 29
M  V30 29 2 26 30
M  V30 30 1 27 31
M  V30 31 2 29 32
M  V30 32 1 32 33
M  V30 33 2 7 9
M  V30 34 2 15 16
M  V30 35 1 18 22
M  V30 36 1 24 28
M  V30 37 1 30 32
M  V30 END BOND
M  V30 END CTAB
M  END
>  <Structure No>
854

>  <Catalog ID>
Z17617106

>  <MW (desalted)>
456.520

>  <ClogP>
4.054

>  <HBD>
0

>  <TPSA>
91.750

>  <RotBonds>
7

>  <Target>
Poly [ADP-ribose] polymerase-1

>  <fromRegid>
CHEMBL1898239

>  <Similarity>
0.9

$$$$
Compound 855
Actelion Java MolfileCreator 2.0

  0  0  0  0  0  0              0 V3000
M  V30 BEGIN CTAB
M  V30 COUNTS 25 28 0 0 0
M  V30 BEGIN ATOM
M  V30 1 S 0.0 0.0 0.0 0
M  V30 2 C -1.3119 0.7564 0.0 0
M  V30 3 C 1.2883 0.7564 0.0 0 CFG=2
M  V30 4 N -2.6947 0.1536 0.0 0
M  V30 5 N -1.4774 2.2574 0.0 0
M  V30 6 C 2.5766 0.0236 0.0 0
M  V30 7 C 1.2764 2.2693 0.0 0
M  V30 8 N -3.7112 1.2764 0.0 0
M  V30 9 C -2.9548 2.5766 0.0 0
M  V30 10 C -0.3782 3.2739 0.0 0
M  V30 11 N 3.8649 0.78 0.0 0
M  V30 12 N 2.5647 -1.4655 0.0 0
M  V30 13 C -3.5812 3.9594 0.0 0
M  V30 14 C 5.1532 0.0472 0.0 0
M  V30 15 C 3.853 -2.2102 0.0 0
M  V30 16 O -2.8366 5.2713 0.0 0
M  V30 17 C -5.0586 4.2785 0.0 0
M  V30 18 C 5.1413 -1.4419 0.0 0
M  V30 19 C 6.4415 0.8037 0.0 0
M  V30 20 O 3.8412 -3.6994 0.0 0
M  V30 21 C -3.853 6.3942 0.0 0
M  V30 22 C -5.2241 5.7796 0.0 0
M  V30 23 C 6.4296 -2.1865 0.0 0
M  V30 24 C 7.7298 0.0709 0.0 0
M  V30 25 C 7.7179 -1.4183 0.0 0
M  V30 END ATOM
M  V30 BEGIN BOND
M  V30 1 1 1 2
M  V30 2 1 3 1 CFG=1
M  V30 3 2 2 4
M  V30 4 1 2 5
M  V30 5 1 3 6
M  V30 6 1 3 7
M  V30 7 1 4 8
M  V30 8 1 5 9
M  V30 9 1 5 10
M  V30 10 2 6 11
M  V30 11 1 6 12
M  V30 12 1 9 13
M  V30 13 1 11 14
M  V30 14 1 12 15
M  V30 15 1 13 16
M  V30 16 2 13 17
M  V30 17 2 14 18
M  V30 18 1 14 19
M  V30 19 2 15 20
M  V30 20 1 16 21
M  V30 21 1 17 22
M  V30 22 1 18 23
M  V30 23 2 19 24
M  V30 24 2 23 25
M  V30 25 2 8 9
M  V30 26 1 15 18
M  V30 27 2 21 22
M  V30 28 1 24 25
M  V30 END BOND
M  V30 BEGIN COLLECTION
M  V30 MDLV30/STERAC1 ATOMS=(1 3)
M  V30 END COLLECTION
M  V30 END CTAB
M  END
>  <Structure No>
855

>  <Catalog ID>
Z17623828

>  <MW (desalted)>
353.398

>  <ClogP>
1.273

>  <HBD>
1

>  <TPSA>
85.310

>  <RotBonds>
4

>  <Target>
parp10

>  <fromRegid>


>  <Similarity>


$$$$
Compound 856
Actelion Java MolfileCreator 2.0

  0  0  0  0  0  0              0 V3000
M  V30 BEGIN CTAB
M  V30 COUNTS 23 25 0 0 0
M  V30 BEGIN ATOM
M  V30 1 O 0.0 0.0 0.0 0
M  V30 2 C -0.0118 -1.4901 0.0 0
M  V30 3 N -1.3246 -2.2352 0.0 0
M  V30 4 N 1.2772 -2.2352 0.0 0
M  V30 5 C -2.6373 -1.4665 0.0 0
M  V30 6 C 2.5664 -1.4665 0.0 0
M  V30 7 C -4.0211 -2.0696 0.0 0
M  V30 8 C -2.8029 0.0354 0.0 0
M  V30 9 C 3.8555 -2.2116 0.0 0
M  V30 10 N -5.0382 -0.9461 0.0 0
M  V30 11 N -4.2813 0.3548 0.0 0
M  V30 12 C 3.8437 -3.7017 0.0 0
M  V30 13 C 5.1446 -1.4428 0.0 0
M  V30 14 C -4.9081 1.7385 0.0 0
M  V30 15 C 5.1328 -4.435 0.0 0
M  V30 16 C 6.4337 -2.1879 0.0 0
M  V30 17 C -6.4101 1.9041 0.0 0
M  V30 18 O 5.4285 -5.8897 0.0 0
M  V30 19 C 6.4219 -3.6781 0.0 0
M  V30 20 O -7.3089 0.6977 0.0 0
M  V30 21 N -7.0369 3.2878 0.0 0
M  V30 22 C 6.9068 -6.0316 0.0 0
M  V30 23 O 7.5218 -4.6716 0.0 0
M  V30 END ATOM
M  V30 BEGIN BOND
M  V30 1 2 1 2
M  V30 2 1 2 3
M  V30 3 1 2 4
M  V30 4 1 3 5
M  V30 5 1 4 6
M  V30 6 1 5 7
M  V30 7 2 5 8
M  V30 8 1 6 9
M  V30 9 2 7 10
M  V30 10 1 8 11
M  V30 11 2 9 12
M  V30 12 1 9 13
M  V30 13 1 11 14
M  V30 14 1 12 15
M  V30 15 2 13 16
M  V30 16 1 14 17
M  V30 17 1 15 18
M  V30 18 2 15 19
M  V30 19 2 17 20
M  V30 20 1 17 21
M  V30 21 1 18 22
M  V30 22 1 19 23
M  V30 23 1 10 11
M  V30 24 1 16 19
M  V30 25 1 22 23
M  V30 END BOND
M  V30 END CTAB
M  END
>  <Structure No>
856

>  <Catalog ID>
Z595834340

>  <MW (desalted)>
317.300

>  <ClogP>
0.267

>  <HBD>
3

>  <TPSA>
120.500

>  <RotBonds>
5

>  <Target>
DNA_pk

>  <fromRegid>


>  <Similarity>


$$$$
Compound 857
Actelion Java MolfileCreator 2.0

  0  0  0  0  0  0              0 V3000
M  V30 BEGIN CTAB
M  V30 COUNTS 24 26 0 0 0
M  V30 BEGIN ATOM
M  V30 1 O 0.0 0.0 0.0 0
M  V30 2 C -0.0118 -1.4914 0.0 0
M  V30 3 N -1.3257 -2.2371 0.0 0
M  V30 4 N 1.2783 -2.2371 0.0 0
M  V30 5 C -2.6395 -1.4795 0.0 0
M  V30 6 C 2.5685 -1.4795 0.0 0
M  V30 7 C -4.0244 -2.0832 0.0 0
M  V30 8 C -2.8053 0.0236 0.0 0
M  V30 9 C 3.8587 -2.2253 0.0 0
M  V30 10 N -5.0424 -0.9587 0.0 0
M  V30 11 N -4.2849 0.3432 0.0 0
M  V30 12 C 3.8469 -3.7167 0.0 0
M  V30 13 C 5.1489 -1.4677 0.0 0
M  V30 14 C -4.9122 1.7281 0.0 0
M  V30 15 C 5.1371 -4.4506 0.0 0
M  V30 16 C 6.4391 -2.2134 0.0 0
M  V30 17 C -6.4155 1.8938 0.0 0
M  V30 18 O 5.1253 -5.942 0.0 0
M  V30 19 C 6.4273 -3.693 0.0 0
M  V30 20 O -7.3151 0.6865 0.0 0
M  V30 21 N -7.0428 3.2787 0.0 0
M  V30 22 C 6.4155 -6.6759 0.0 0
M  V30 23 O 7.7175 -4.4269 0.0 0
M  V30 24 C 7.7057 -5.9183 0.0 0
M  V30 END ATOM
M  V30 BEGIN BOND
M  V30 1 2 1 2
M  V30 2 1 2 3
M  V30 3 1 2 4
M  V30 4 1 3 5
M  V30 5 1 4 6
M  V30 6 1 5 7
M  V30 7 2 5 8
M  V30 8 1 6 9
M  V30 9 2 7 10
M  V30 10 1 8 11
M  V30 11 2 9 12
M  V30 12 1 9 13
M  V30 13 1 11 14
M  V30 14 1 12 15
M  V30 15 2 13 16
M  V30 16 1 14 17
M  V30 17 1 15 18
M  V30 18 2 15 19
M  V30 19 2 17 20
M  V30 20 1 17 21
M  V30 21 1 18 22
M  V30 22 1 19 23
M  V30 23 1 22 24
M  V30 24 1 10 11
M  V30 25 1 16 19
M  V30 26 1 23 24
M  V30 END BOND
M  V30 END CTAB
M  END
>  <Structure No>
857

>  <Catalog ID>
Z595835678

>  <MW (desalted)>
331.327

>  <ClogP>
0.226

>  <HBD>
3

>  <TPSA>
120.500

>  <RotBonds>
5

>  <Target>
DNA_pk

>  <fromRegid>


>  <Similarity>


$$$$
Compound 858
Actelion Java MolfileCreator 2.0

  0  0  0  0  0  0              0 V3000
M  V30 BEGIN CTAB
M  V30 COUNTS 26 28 0 0 0
M  V30 BEGIN ATOM
M  V30 1 O 0.0 0.0 0.0 0
M  V30 2 C -1.3044 0.7638 0.0 0
M  V30 3 N -2.6088 0.0235 0.0 0
M  V30 4 C -1.3161 2.268 0.0 0
M  V30 5 C -3.9132 0.7873 0.0 0
M  V30 6 C -2.6206 3.0201 0.0 0
M  V30 7 N -3.925 2.2915 0.0 0
M  V30 8 C -5.2176 0.047 0.0 0
M  V30 9 C -2.6323 4.5243 0.0 0
M  V30 10 C -6.5221 0.8108 0.0 0
M  V30 11 C -5.2294 -1.4336 0.0 0
M  V30 12 C -1.3514 5.2764 0.0 0
M  V30 13 C -7.8265 0.0705 0.0 0
M  V30 14 C -6.5338 -2.1622 0.0 0
M  V30 15 N -9.1309 0.8343 0.0 0
M  V30 16 C -7.8383 -1.4101 0.0 0
M  V30 17 C -9.1427 2.3385 0.0 0
M  V30 18 O -7.8618 3.0906 0.0 0
M  V30 19 N -10.4471 3.0906 0.0 0
M  V30 20 C -10.4589 4.5948 0.0 0 CFG=2
M  V30 21 C -9.1779 5.3469 0.0 0
M  V30 22 C -11.7633 5.3469 0.0 0
M  V30 23 N -9.1897 6.8511 0.0 0
M  V30 24 C -11.775 6.8511 0.0 0
M  V30 25 C -10.4941 7.6032 0.0 0
M  V30 26 O -10.5059 9.1074 0.0 0
M  V30 END ATOM
M  V30 BEGIN BOND
M  V30 1 2 1 2
M  V30 2 1 2 3
M  V30 3 1 2 4
M  V30 4 1 3 5
M  V30 5 2 4 6
M  V30 6 2 5 7
M  V30 7 1 5 8
M  V30 8 1 6 9
M  V30 9 2 8 10
M  V30 10 1 8 11
M  V30 11 1 9 12
M  V30 12 1 10 13
M  V30 13 2 11 14
M  V30 14 1 13 15
M  V30 15 2 13 16
M  V30 16 1 15 17
M  V30 17 2 17 18
M  V30 18 1 17 19
M  V30 19 1 20 19 CFG=1
M  V30 20 1 20 21
M  V30 21 1 20 22
M  V30 22 1 21 23
M  V30 23 1 22 24
M  V30 24 1 23 25
M  V30 25 2 25 26
M  V30 26 1 6 7
M  V30 27 1 14 16
M  V30 28 1 24 25
M  V30 END BOND
M  V30 BEGIN COLLECTION
M  V30 MDLV30/STERAC1 ATOMS=(1 20)
M  V30 END COLLECTION
M  V30 END CTAB
M  END
>  <Structure No>
858

>  <Catalog ID>
Z1004109894

>  <MW (desalted)>
355.391

>  <ClogP>
0.241

>  <HBD>
4

>  <TPSA>
111.690

>  <RotBonds>
4

>  <Target>
Tankyrase1

>  <fromRegid>


>  <Similarity>


$$$$
Compound 859
Actelion Java MolfileCreator 2.0

  0  0  0  0  0  0              0 V3000
M  V30 BEGIN CTAB
M  V30 COUNTS 25 29 0 0 0
M  V30 BEGIN ATOM
M  V30 1 Br 0.0 0.0 0.0 0
M  V30 2 C 0.8552 -1.2234 0.0 0
M  V30 3 C 2.3519 -1.0809 0.0 0
M  V30 4 C 0.2019 -2.5776 0.0 0
M  V30 5 C 3.2072 -2.3044 0.0 0
M  V30 6 C 1.0571 -3.8011 0.0 0
M  V30 7 C 2.5539 -3.6586 0.0 0
M  V30 8 C 3.4091 -4.8821 0.0 0
M  V30 9 N 2.9102 -6.2956 0.0 0
M  V30 10 N 4.9058 -4.8939 0.0 0
M  V30 11 N 4.11 -7.1865 0.0 0
M  V30 12 C 5.3334 -6.3194 0.0 0
M  V30 13 C 4.2287 -8.6832 0.0 0
M  V30 14 C 6.6876 -6.9489 0.0 0
M  V30 15 O 2.9815 -9.5385 0.0 0
M  V30 16 N 5.5829 -9.3128 0.0 0
M  V30 17 C 6.8064 -8.4456 0.0 0
M  V30 18 C 8.0655 -6.3431 0.0 0
M  V30 19 S 8.2675 -8.7664 0.0 0
M  V30 20 C 9.0396 -7.4716 0.0 0
M  V30 21 C 8.3269 -4.8464 0.0 0
M  V30 22 C 10.5363 -7.3884 0.0 0
M  V30 23 C 9.6454 -4.1218 0.0 0
M  V30 24 C 11.4153 -6.1531 0.0 0
M  V30 25 C 11.0233 -4.7039 0.0 0
M  V30 END ATOM
M  V30 BEGIN BOND
M  V30 1 1 1 2
M  V30 2 2 2 3
M  V30 3 1 2 4
M  V30 4 1 3 5
M  V30 5 2 4 6
M  V30 6 2 5 7
M  V30 7 1 7 8
M  V30 8 2 8 9
M  V30 9 1 8 10
M  V30 10 1 9 11
M  V30 11 2 10 12
M  V30 12 1 11 13
M  V30 13 1 12 14
M  V30 14 2 13 15
M  V30 15 1 13 16
M  V30 16 2 14 17
M  V30 17 1 14 18
M  V30 18 1 17 19
M  V30 19 2 18 20
M  V30 20 1 18 21
M  V30 21 1 20 22
M  V30 22 1 21 23
M  V30 23 1 22 24
M  V30 24 1 23 25
M  V30 25 1 6 7
M  V30 26 1 11 12
M  V30 27 1 16 17
M  V30 28 1 19 20
M  V30 29 1 24 25
M  V30 END BOND
M  V30 END CTAB
M  END
>  <Structure No>
859

>  <Catalog ID>
Z55411173

>  <MW (desalted)>
415.307

>  <ClogP>
3.818

>  <HBD>
1

>  <TPSA>
59.810

>  <RotBonds>
1

>  <Target>
Serine/threonine-protein kinase Chk2

>  <fromRegid>
CHEMBL2007592

>  <Similarity>
0.96

$$$$
Compound 860
Actelion Java MolfileCreator 2.0

  0  0  0  0  0  0              0 V3000
M  V30 BEGIN CTAB
M  V30 COUNTS 27 30 0 0 0
M  V30 BEGIN ATOM
M  V30 1 S 0.0 0.0 0.0 0
M  V30 2 C 0.1423 -1.4825 0.0 0
M  V30 3 C -1.4825 0.3202 0.0 0
M  V30 4 N -1.2453 -2.0874 0.0 0
M  V30 5 N 1.4351 -2.2297 0.0 0
M  V30 6 C -2.2416 -0.9725 0.0 0
M  V30 7 C -2.04 1.7316 0.0 0
M  V30 8 C 1.4232 -3.7242 0.0 0
M  V30 9 C -3.7479 -1.186 0.0 0
M  V30 10 C -3.487 2.1823 0.0 0
M  V30 11 O 0.1067 -4.4595 0.0 0
M  V30 12 C 2.716 -4.4595 0.0 0
M  V30 13 C -4.8628 -0.1541 0.0 0
M  V30 14 C -4.7442 1.3402 0.0 0
M  V30 15 C 2.7042 -5.954 0.0 0
M  V30 16 C 3.997 -6.6893 0.0 0
M  V30 17 C 5.2898 -5.9302 0.0 0
M  V30 18 C 3.9851 -8.1838 0.0 0
M  V30 19 C 6.5826 -6.6656 0.0 0
M  V30 20 C 5.2779 -8.931 0.0 0
M  V30 21 O 7.8754 -5.9065 0.0 0
M  V30 22 C 6.5707 -8.16 0.0 0
M  V30 23 O 5.266 -10.4254 0.0 0
M  V30 24 C 9.1682 -6.6419 0.0 0
M  V30 25 O 7.8635 -8.9072 0.0 0
M  V30 26 C 6.5589 -11.1608 0.0 0
M  V30 27 C 9.1563 -8.1363 0.0 0
M  V30 END ATOM
M  V30 BEGIN BOND
M  V30 1 1 1 2
M  V30 2 1 1 3
M  V30 3 2 2 4
M  V30 4 1 2 5
M  V30 5 2 3 6
M  V30 6 1 3 7
M  V30 7 1 5 8
M  V30 8 1 6 9
M  V30 9 1 7 10
M  V30 10 2 8 11
M  V30 11 1 8 12
M  V30 12 1 9 13
M  V30 13 1 10 14
M  V30 14 2 12 15 CFG=2
M  V30 15 1 15 16
M  V30 16 2 16 17
M  V30 17 1 16 18
M  V30 18 1 17 19
M  V30 19 2 18 20
M  V30 20 1 19 21
M  V30 21 2 19 22
M  V30 22 1 20 23
M  V30 23 1 21 24
M  V30 24 1 22 25
M  V30 25 1 23 26
M  V30 26 1 24 27
M  V30 27 1 4 6
M  V30 28 1 13 14
M  V30 29 1 20 22
M  V30 30 1 25 27
M  V30 END BOND
M  V30 END CTAB
M  END
>  <Structure No>
860

>  <Catalog ID>
Z228299332

>  <MW (desalted)>
386.465

>  <ClogP>
4.948

>  <HBD>
1

>  <TPSA>
69.680

>  <RotBonds>
4

>  <Target>
Poly [ADP-ribose] polymerase-1

>  <fromRegid>
CHEMBL516766

>  <Similarity>
0.92

$$$$
Compound 861
Actelion Java MolfileCreator 2.0

  0  0  0  0  0  0              0 V3000
M  V30 BEGIN CTAB
M  V30 COUNTS 28 31 0 0 0
M  V30 BEGIN ATOM
M  V30 1 S 0.0 0.0 0.0 0
M  V30 2 C 1.4169 0.4723 0.0 0
M  V30 3 C -0.8973 1.228 0.0 0
M  V30 4 C 1.4051 1.9836 0.0 0
M  V30 5 C 2.7039 -0.2597 0.0 0
M  V30 6 C -2.4087 1.2398 0.0 0
M  V30 7 C -0.0236 2.456 0.0 0
M  V30 8 C 2.6921 2.7511 0.0 0
M  V30 9 C 3.991 0.4959 0.0 0
M  V30 10 O -3.1644 2.5504 0.0 0
M  V30 11 O -3.1644 -0.0472 0.0 0
M  V30 12 C 3.9791 2.0073 0.0 0
M  V30 13 C -4.6758 -0.0354 0.0 0
M  V30 14 N 5.2662 2.7748 0.0 0
M  V30 15 C -5.4315 -1.3224 0.0 0
M  V30 16 C 5.2544 4.2861 0.0 0
M  V30 17 O 3.9437 5.0418 0.0 0
M  V30 18 C 6.5414 5.0418 0.0 0
M  V30 19 N 7.8285 4.3098 0.0 0
M  V30 20 C 6.5296 6.5532 0.0 0
M  V30 21 C 9.1155 5.0655 0.0 0
M  V30 22 C 7.8167 7.3207 0.0 0
M  V30 23 O 10.4025 4.3334 0.0 0
M  V30 24 C 9.1037 6.5768 0.0 0
M  V30 25 C 7.8048 8.8321 0.0 0
M  V30 26 C 10.3907 7.3443 0.0 0
M  V30 27 C 9.0919 9.5878 0.0 0
M  V30 28 C 10.3789 8.8557 0.0 0
M  V30 END ATOM
M  V30 BEGIN BOND
M  V30 1 1 1 2
M  V30 2 1 1 3
M  V30 3 2 2 4
M  V30 4 1 2 5
M  V30 5 1 3 6
M  V30 6 2 3 7
M  V30 7 1 4 8
M  V30 8 2 5 9
M  V30 9 2 6 10
M  V30 10 1 6 11
M  V30 11 2 8 12
M  V30 12 1 11 13
M  V30 13 1 12 14
M  V30 14 1 13 15
M  V30 15 1 14 16
M  V30 16 2 16 17
M  V30 17 1 16 18
M  V30 18 1 18 19
M  V30 19 2 18 20
M  V30 20 1 19 21
M  V30 21 1 20 22
M  V30 22 2 21 23
M  V30 23 1 21 24
M  V30 24 1 22 25
M  V30 25 1 24 26
M  V30 26 2 25 27
M  V30 27 2 26 28
M  V30 28 1 4 7
M  V30 29 1 9 12
M  V30 30 2 22 24
M  V30 31 1 27 28
M  V30 END BOND
M  V30 END CTAB
M  END
>  <Structure No>
861

>  <Catalog ID>
Z368305856

>  <MW (desalted)>
392.428

>  <ClogP>
3.595

>  <HBD>
2

>  <TPSA>
84.500

>  <RotBonds>
5

>  <Target>
Tankyrase1

>  <fromRegid>


>  <Similarity>


$$$$
Compound 862
Actelion Java MolfileCreator 2.0

  0  0  0  0  0  0              0 V3000
M  V30 BEGIN CTAB
M  V30 COUNTS 31 34 0 0 0
M  V30 BEGIN ATOM
M  V30 1 S 0.0 0.0 0.0 0
M  V30 2 O -0.7582 -1.2914 0.0 0
M  V30 3 O 0.7345 1.3151 0.0 0
M  V30 4 N 1.2914 -0.7345 0.0 0
M  V30 5 C -1.3151 0.7701 0.0 0
M  V30 6 C 1.2796 -2.2274 0.0 0
M  V30 7 C -1.327 2.2867 0.0 0
M  V30 8 C 2.571 -2.962 0.0 0
M  V30 9 C -0.0355 -2.962 0.0 0
M  V30 10 C 2.5592 -4.4549 0.0 0
M  V30 11 C -0.0473 -4.4549 0.0 0
M  V30 12 C 1.244 -5.1895 0.0 0
M  V30 13 C 1.2322 -6.6824 0.0 0
M  V30 14 N 2.4407 -7.5591 0.0 0
M  V30 15 C 0.0 -7.5591 0.0 0
M  V30 16 N 1.9668 -8.9809 0.0 0
M  V30 17 C 0.4502 -8.9809 0.0 0 CFG=2
M  V30 18 C 2.8435 -10.1894 0.0 0
M  V30 19 C -0.4502 -10.1894 0.0 0
M  V30 20 O 2.2156 -11.552 0.0 0
M  V30 21 C 4.3246 -10.0236 0.0 0
M  V30 22 C 0.154 -11.552 0.0 0
M  V30 23 C -1.9549 -10.0236 0.0 0
M  V30 24 S 5.3198 -11.1254 0.0 0
M  V30 25 C 5.0591 -8.7084 0.0 0
M  V30 26 C -0.7464 -12.7605 0.0 0
M  V30 27 C -2.8554 -11.2321 0.0 0
M  V30 28 C 6.6824 -10.4975 0.0 0
M  V30 29 C 6.5165 -9.0046 0.0 0
M  V30 30 C -2.2511 -12.5946 0.0 0
M  V30 31 F -3.1516 -13.8031 0.0 0
M  V30 END ATOM
M  V30 BEGIN BOND
M  V30 1 2 1 2
M  V30 2 2 1 3
M  V30 3 1 1 4
M  V30 4 1 1 5
M  V30 5 1 4 6
M  V30 6 1 5 7
M  V30 7 2 6 8
M  V30 8 1 6 9
M  V30 9 1 8 10
M  V30 10 2 9 11
M  V30 11 2 10 12
M  V30 12 1 12 13
M  V30 13 2 13 14
M  V30 14 1 13 15
M  V30 15 1 14 16
M  V30 16 1 15 17
M  V30 17 1 16 18
M  V30 18 1 17 19 CFG=3
M  V30 19 2 18 20
M  V30 20 1 18 21
M  V30 21 2 19 22
M  V30 22 1 19 23
M  V30 23 1 21 24
M  V30 24 2 21 25
M  V30 25 1 22 26
M  V30 26 2 23 27
M  V30 27 1 24 28
M  V30 28 1 25 29
M  V30 29 2 26 30
M  V30 30 1 30 31
M  V30 31 1 11 12
M  V30 32 1 16 17
M  V30 33 1 27 30
M  V30 34 2 28 29
M  V30 END BOND
M  V30 BEGIN COLLECTION
M  V30 MDLV30/STERAC1 ATOMS=(1 17)
M  V30 END COLLECTION
M  V30 END CTAB
M  END
>  <Structure No>
862

>  <Catalog ID>
Z57514595

>  <MW (desalted)>
457.541

>  <ClogP>
3.719

>  <HBD>
1

>  <TPSA>
78.840

>  <RotBonds>
5

>  <Target>
ATM

>  <fromRegid>


>  <Similarity>


$$$$
Compound 863
Actelion Java MolfileCreator 2.0

  0  0  0  0  0  0              0 V3000
M  V30 BEGIN CTAB
M  V30 COUNTS 27 29 0 0 0
M  V30 BEGIN ATOM
M  V30 1 O 0.0 0.0 0.0 0
M  V30 2 C -1.3125 -0.7449 0.0 0
M  V30 3 N -1.3243 -2.2348 0.0 0
M  V30 4 C -2.625 0.0236 0.0 0
M  V30 5 C -0.0354 -2.968 0.0 0
M  V30 6 C -2.6369 1.5372 0.0 0
M  V30 7 C -3.9376 -0.7213 0.0 0
M  V30 8 C -0.0472 -4.4579 0.0 0
M  V30 9 C -3.9494 2.2939 0.0 0
M  V30 10 C -5.2501 0.0472 0.0 0
M  V30 11 C 1.2415 -5.2028 0.0 0
M  V30 12 C -1.3598 -5.2028 0.0 0
M  V30 13 C -3.9612 3.8075 0.0 0
M  V30 14 C -5.2619 1.549 0.0 0
M  V30 15 C 1.2297 -6.6927 0.0 0
M  V30 16 C 2.5304 -4.4342 0.0 0
M  V30 17 C -1.3716 -6.6927 0.0 0
M  V30 18 O -5.2738 4.5643 0.0 0
M  V30 19 N -2.6723 4.5643 0.0 0
M  V30 20 C -0.0827 -7.4259 0.0 0
M  V30 21 N 3.8193 -5.1792 0.0 0
M  V30 22 C 5.1082 -4.4106 0.0 0 CFG=2
M  V30 23 C 3.8075 -6.6691 0.0 0
M  V30 24 C 6.3971 -5.1555 0.0 0
M  V30 25 C 5.0964 -2.897 0.0 0
M  V30 26 C 5.0964 -7.4022 0.0 0
M  V30 27 C 6.3853 -6.6454 0.0 0
M  V30 END ATOM
M  V30 BEGIN BOND
M  V30 1 2 1 2
M  V30 2 1 2 3
M  V30 3 1 2 4
M  V30 4 1 3 5
M  V30 5 2 4 6
M  V30 6 1 4 7
M  V30 7 1 5 8
M  V30 8 1 6 9
M  V30 9 2 7 10
M  V30 10 2 8 11
M  V30 11 1 8 12
M  V30 12 1 9 13
M  V30 13 2 9 14
M  V30 14 1 11 15
M  V30 15 1 11 16
M  V30 16 2 12 17
M  V30 17 2 13 18
M  V30 18 1 13 19
M  V30 19 2 15 20
M  V30 20 1 16 21
M  V30 21 1 21 22
M  V30 22 1 21 23
M  V30 23 1 22 24
M  V30 24 1 22 25 CFG=1
M  V30 25 1 23 26
M  V30 26 1 24 27
M  V30 27 1 10 14
M  V30 28 1 17 20
M  V30 29 1 26 27
M  V30 END BOND
M  V30 BEGIN COLLECTION
M  V30 MDLV30/STERAC1 ATOMS=(1 22)
M  V30 END COLLECTION
M  V30 END CTAB
M  END
>  <Structure No>
863

>  <Catalog ID>
Z424506426

>  <MW (desalted)>
365.469

>  <ClogP>
3.260

>  <HBD>
2

>  <TPSA>
75.430

>  <RotBonds>
6

>  <Target>
Poly [ADP-ribose] polymerase-1

>  <fromRegid>
CHEMBL3605996

>  <Similarity>
0.85

$$$$
Compound 864
Actelion Java MolfileCreator 2.0

  0  0  0  0  0  0              0 V3000
M  V30 BEGIN CTAB
M  V30 COUNTS 27 29 0 0 0
M  V30 BEGIN ATOM
M  V30 1 O 0.0 0.0 0.0 0
M  V30 2 C -0.0117 1.509 0.0 0
M  V30 3 N -1.3204 2.2635 0.0 0
M  V30 4 C 1.2732 2.2635 0.0 0
M  V30 5 C -1.3322 3.7726 0.0 0
M  V30 6 C 1.2614 3.7726 0.0 0
M  V30 7 C 2.5583 1.5326 0.0 0
M  V30 8 N -0.0471 4.5271 0.0 0
M  V30 9 C -2.6408 4.5271 0.0 0
M  V30 10 C 2.5465 4.5271 0.0 0
M  V30 11 C 3.8433 2.2871 0.0 0
M  V30 12 C -3.9494 3.7962 0.0 0
M  V30 13 C 3.8316 3.7962 0.0 0
M  V30 14 C -5.2581 4.5507 0.0 0
M  V30 15 O -5.2699 6.0598 0.0 0
M  V30 16 N -6.5667 3.8198 0.0 0
M  V30 17 C -7.8754 4.5743 0.0 0
M  V30 18 C -9.184 3.8433 0.0 0
M  V30 19 O -10.4926 4.5979 0.0 0
M  V30 20 C -11.8013 3.8669 0.0 0
M  V30 21 C -11.8131 2.3814 0.0 0
M  V30 22 C -13.1099 4.6215 0.0 0
M  V30 23 C -13.1217 1.6505 0.0 0
M  V30 24 C -10.528 1.6505 0.0 0
M  V30 25 C -14.4186 3.8905 0.0 0
M  V30 26 C -13.1217 6.1305 0.0 0
M  V30 27 C -14.4303 2.405 0.0 0
M  V30 END ATOM
M  V30 BEGIN BOND
M  V30 1 2 1 2
M  V30 2 1 2 3
M  V30 3 1 2 4
M  V30 4 1 3 5
M  V30 5 2 4 6
M  V30 6 1 4 7
M  V30 7 2 5 8
M  V30 8 1 5 9
M  V30 9 1 6 10
M  V30 10 2 7 11
M  V30 11 1 9 12
M  V30 12 2 10 13
M  V30 13 1 12 14
M  V30 14 2 14 15
M  V30 15 1 14 16
M  V30 16 1 16 17
M  V30 17 1 17 18
M  V30 18 1 18 19
M  V30 19 1 19 20
M  V30 20 2 20 21
M  V30 21 1 20 22
M  V30 22 1 21 23
M  V30 23 1 21 24
M  V30 24 2 22 25
M  V30 25 1 22 26
M  V30 26 2 23 27
M  V30 27 1 6 8
M  V30 28 1 11 13
M  V30 29 1 25 27
M  V30 END BOND
M  V30 END CTAB
M  END
>  <Structure No>
864

>  <Catalog ID>
Z424729862

>  <MW (desalted)>
365.426

>  <ClogP>
2.410

>  <HBD>
2

>  <TPSA>
79.790

>  <RotBonds>
7

>  <Target>
Tankyrase1

>  <fromRegid>


>  <Similarity>


$$$$
Compound 865
Actelion Java MolfileCreator 2.0

  0  0  0  0  0  0              0 V3000
M  V30 BEGIN CTAB
M  V30 COUNTS 30 33 0 0 0
M  V30 BEGIN ATOM
M  V30 1 O 0.0 0.0 0.0 0
M  V30 2 C -0.0117 1.5076 0.0 0
M  V30 3 N -1.3191 2.2614 0.0 0
M  V30 4 C 1.272 2.2614 0.0 0
M  V30 5 C -1.3309 3.7691 0.0 0
M  V30 6 C 1.2602 3.7691 0.0 0
M  V30 7 C 2.5559 1.5194 0.0 0
M  V30 8 N -0.0471 4.5229 0.0 0
M  V30 9 C -2.6383 4.5229 0.0 0
M  V30 10 C 2.5441 4.5229 0.0 0
M  V30 11 C 3.8397 2.2732 0.0 0
M  V30 12 N -3.9457 3.7926 0.0 0
M  V30 13 C 3.828 3.7926 0.0 0
M  V30 14 C -5.2531 4.5464 0.0 0
M  V30 15 C -3.9575 2.3085 0.0 0
M  V30 16 O -6.5606 3.8162 0.0 0
M  V30 17 C -5.2649 6.0541 0.0 0
M  V30 18 C -5.2649 1.5665 0.0 0
M  V30 19 C -6.5723 6.8079 0.0 0
M  V30 20 C -3.9811 6.8079 0.0 0
M  V30 21 C -5.2767 0.0824 0.0 0
M  V30 22 C -6.5723 2.3203 0.0 0
M  V30 23 C -6.5841 8.3156 0.0 0
M  V30 24 C -3.9929 8.3156 0.0 0
M  V30 25 C -6.5841 -0.6595 0.0 0
M  V30 26 C -7.8797 1.5783 0.0 0
M  V30 27 O -7.8915 9.0694 0.0 0
M  V30 28 N -5.3003 9.0694 0.0 0
M  V30 29 C -7.8915 0.106 0.0 0
M  V30 30 C -5.312 10.577 0.0 0
M  V30 END ATOM
M  V30 BEGIN BOND
M  V30 1 2 1 2
M  V30 2 1 2 3
M  V30 3 1 2 4
M  V30 4 1 3 5
M  V30 5 2 4 6
M  V30 6 1 4 7
M  V30 7 2 5 8
M  V30 8 1 5 9
M  V30 9 1 6 10
M  V30 10 2 7 11
M  V30 11 1 9 12
M  V30 12 2 10 13
M  V30 13 1 12 14
M  V30 14 1 12 15
M  V30 15 2 14 16
M  V30 16 1 14 17
M  V30 17 1 15 18
M  V30 18 2 17 19
M  V30 19 1 17 20
M  V30 20 2 18 21
M  V30 21 1 18 22
M  V30 22 1 19 23
M  V30 23 2 20 24
M  V30 24 1 21 25
M  V30 25 2 22 26
M  V30 26 2 23 27
M  V30 27 1 23 28
M  V30 28 2 25 29
M  V30 29 1 28 30
M  V30 30 1 6 8
M  V30 31 1 11 13
M  V30 32 1 24 28
M  V30 33 1 26 29
M  V30 END BOND
M  V30 END CTAB
M  END
>  <Structure No>
865

>  <Catalog ID>
Z316504718

>  <MW (desalted)>
400.430

>  <ClogP>
0.858

>  <HBD>
1

>  <TPSA>
82.080

>  <RotBonds>
5

>  <Target>
parp15

>  <fromRegid>


>  <Similarity>


$$$$
Compound 866
Actelion Java MolfileCreator 2.0

  0  0  0  0  0  0              0 V3000
M  V30 BEGIN CTAB
M  V30 COUNTS 23 25 0 0 0
M  V30 BEGIN ATOM
M  V30 1 O 0.0 0.0 0.0 0
M  V30 2 C -0.0117 1.5061 0.0 0
M  V30 3 N -1.3178 2.271 0.0 0
M  V30 4 C 1.2708 2.271 0.0 0
M  V30 5 C -1.3296 3.7771 0.0 0
M  V30 6 C 1.259 3.7771 0.0 0
M  V30 7 C 2.5534 1.5296 0.0 0
M  V30 8 N -0.047 4.5302 0.0 0
M  V30 9 C -2.6357 4.5302 0.0 0
M  V30 10 C 2.5416 4.5302 0.0 0
M  V30 11 C 3.836 2.2945 0.0 0
M  V30 12 C -3.9419 3.8007 0.0 0
M  V30 13 C 3.8242 3.8007 0.0 0
M  V30 14 C -5.248 4.5537 0.0 0
M  V30 15 C -6.5541 3.8242 0.0 0
M  V30 16 O -6.5659 2.3416 0.0 0
M  V30 17 N -7.8602 4.5773 0.0 0
M  V30 18 C -7.872 6.0834 0.0 0
M  V30 19 C -9.1664 3.8477 0.0 0
M  V30 20 C -9.1781 6.8483 0.0 0
M  V30 21 C -10.4725 4.6008 0.0 0
M  V30 22 O -9.1899 8.3544 0.0 0
M  V30 23 N -10.4842 6.107 0.0 0
M  V30 END ATOM
M  V30 BEGIN BOND
M  V30 1 2 1 2
M  V30 2 1 2 3
M  V30 3 1 2 4
M  V30 4 1 3 5
M  V30 5 2 4 6
M  V30 6 1 4 7
M  V30 7 2 5 8
M  V30 8 1 5 9
M  V30 9 1 6 10
M  V30 10 2 7 11
M  V30 11 1 9 12
M  V30 12 2 10 13
M  V30 13 1 12 14
M  V30 14 1 14 15
M  V30 15 2 15 16
M  V30 16 1 15 17
M  V30 17 1 17 18
M  V30 18 1 17 19
M  V30 19 1 18 20
M  V30 20 1 19 21
M  V30 21 2 20 22
M  V30 22 1 20 23
M  V30 23 1 6 8
M  V30 24 1 11 13
M  V30 25 1 21 23
M  V30 END BOND
M  V30 END CTAB
M  END
>  <Structure No>
866

>  <Catalog ID>
Z85251174

>  <MW (desalted)>
314.339

>  <ClogP>
-0.253

>  <HBD>
2

>  <TPSA>
90.870

>  <RotBonds>
4

>  <Target>
Poly [ADP-ribose] polymerase-1

>  <fromRegid>
CHEMBL3105413

>  <Similarity>
0.97

$$$$
Compound 867
Actelion Java MolfileCreator 2.0

  0  0  0  0  0  0              0 V3000
M  V30 BEGIN CTAB
M  V30 COUNTS 20 21 0 0 0
M  V30 BEGIN ATOM
M  V30 1 Cl 0.0 0.0 0.0 0
M  V30 2 C 1.2889 -0.7331 0.0 0
M  V30 3 C 2.5778 0.0236 0.0 0
M  V30 4 C 1.2771 -2.2231 0.0 0
M  V30 5 C 3.8668 -0.7095 0.0 0
M  V30 6 C 2.566 -2.9562 0.0 0
M  V30 7 C 3.8549 -2.1994 0.0 0
M  V30 8 C 5.1557 0.0473 0.0 0
M  V30 9 N 5.1439 1.5609 0.0 0
M  V30 10 C 6.4328 2.3295 0.0 0
M  V30 11 O 7.7218 1.5845 0.0 0
M  V30 12 C 6.421 3.8431 0.0 0
M  V30 13 C 7.7099 4.5999 0.0 0
M  V30 14 C 5.1084 4.5999 0.0 0
M  V30 15 C 7.6981 6.1135 0.0 0
M  V30 16 C 5.0966 6.1135 0.0 0
M  V30 17 C 6.3855 6.8703 0.0 0
M  V30 18 C 6.3737 8.384 0.0 0
M  V30 19 O 7.6626 9.1408 0.0 0
M  V30 20 N 5.0611 9.1408 0.0 0
M  V30 END ATOM
M  V30 BEGIN BOND
M  V30 1 1 1 2
M  V30 2 2 2 3
M  V30 3 1 2 4
M  V30 4 1 3 5
M  V30 5 2 4 6
M  V30 6 2 5 7
M  V30 7 1 5 8
M  V30 8 1 8 9
M  V30 9 1 9 10
M  V30 10 2 10 11
M  V30 11 1 10 12
M  V30 12 2 12 13
M  V30 13 1 12 14
M  V30 14 1 13 15
M  V30 15 2 14 16
M  V30 16 2 15 17
M  V30 17 1 17 18
M  V30 18 2 18 19
M  V30 19 1 18 20
M  V30 20 1 6 7
M  V30 21 1 16 17
M  V30 END BOND
M  V30 END CTAB
M  END
>  <Structure No>
867

>  <Catalog ID>
Z52020040

>  <MW (desalted)>
288.729

>  <ClogP>
2.477

>  <HBD>
2

>  <TPSA>
72.190

>  <RotBonds>
4

>  <Target>
parp14

>  <fromRegid>


>  <Similarity>


$$$$
Compound 868
Actelion Java MolfileCreator 2.0

  0  0  0  0  0  0              0 V3000
M  V30 BEGIN CTAB
M  V30 COUNTS 24 26 0 0 0
M  V30 BEGIN ATOM
M  V30 1 S 0.0 0.0 0.0 0
M  V30 2 C -0.3656 1.4627 0.0 0
M  V30 3 C 1.4273 -0.401 0.0 0
M  V30 4 N -1.7693 2.0407 0.0 0
M  V30 5 N 0.5897 2.6187 0.0 0
M  V30 6 C 1.7693 -1.8401 0.0 0
M  V30 7 N -1.675 3.5505 0.0 0
M  V30 8 C 2.076 2.6776 0.0 0
M  V30 9 C -0.2123 3.9044 0.0 0
M  V30 10 O 3.1967 -2.2412 0.0 0
M  V30 11 N 0.6723 -2.8664 0.0 0
M  V30 12 C 2.772 4.0106 0.0 0
M  V30 13 C 2.8546 1.4155 0.0 0
M  V30 14 N 0.4836 5.2374 0.0 0
M  V30 15 C 1.9699 5.2964 0.0 0
M  V30 16 C 4.2583 4.0696 0.0 0
M  V30 17 C 4.3409 1.4744 0.0 0
M  V30 18 C -0.3184 6.5231 0.0 0
M  V30 19 O 2.6658 6.6293 0.0 0
M  V30 20 C 5.0368 2.8074 0.0 0
M  V30 21 C 0.3774 7.8561 0.0 0
M  V30 22 C -0.4246 9.1418 0.0 0
M  V30 23 C 0.2713 10.4748 0.0 0
M  V30 24 C -1.9345 9.1065 0.0 0
M  V30 END ATOM
M  V30 BEGIN BOND
M  V30 1 1 1 2
M  V30 2 1 1 3
M  V30 3 2 2 4
M  V30 4 1 2 5
M  V30 5 1 3 6
M  V30 6 1 4 7
M  V30 7 1 5 8
M  V30 8 1 5 9
M  V30 9 2 6 10
M  V30 10 1 6 11
M  V30 11 2 8 12
M  V30 12 1 8 13
M  V30 13 1 9 14
M  V30 14 1 12 15
M  V30 15 1 12 16
M  V30 16 2 13 17
M  V30 17 1 14 18
M  V30 18 2 15 19
M  V30 19 2 16 20
M  V30 20 1 18 21
M  V30 21 1 21 22
M  V30 22 1 22 23
M  V30 23 1 22 24
M  V30 24 2 7 9
M  V30 25 1 14 15
M  V30 26 1 17 20
M  V30 END BOND
M  V30 END CTAB
M  END
>  <Structure No>
868

>  <Catalog ID>
Z17752482

>  <MW (desalted)>
345.419

>  <ClogP>
1.295

>  <HBD>
1

>  <TPSA>
94.110

>  <RotBonds>
6

>  <Target>
CHK2

>  <fromRegid>


>  <Similarity>


$$$$
Compound 869
Actelion Java MolfileCreator 2.0

  0  0  0  0  0  0              0 V3000
M  V30 BEGIN CTAB
M  V30 COUNTS 22 23 0 0 0
M  V30 BEGIN ATOM
M  V30 1 O 0.0 0.0 0.0 0
M  V30 2 C -0.0118 -1.4916 0.0 0
M  V30 3 N -1.3259 -2.2257 0.0 0
M  V30 4 N 1.2785 -2.2257 0.0 0
M  V30 5 C -1.3377 -3.7173 0.0 0
M  V30 6 C -2.64 -1.468 0.0 0
M  V30 7 C 1.2667 -3.7173 0.0 0
M  V30 8 C -0.0473 -4.4514 0.0 0
M  V30 9 C -2.6519 -4.4514 0.0 0
M  V30 10 C -3.9541 -2.202 0.0 0
M  V30 11 O 2.5571 -4.4514 0.0 0
M  V30 12 C -0.0591 -5.943 0.0 0
M  V30 13 C -2.6637 -5.943 0.0 0
M  V30 14 O -3.966 -3.6937 0.0 0
M  V30 15 N -5.2682 -1.4443 0.0 0
M  V30 16 C -1.3733 -6.6771 0.0 0
M  V30 17 C -6.5823 -2.1783 0.0 0 CFG=2
M  V30 18 C -5.2801 0.071 0.0 0
M  V30 19 C -7.8965 -1.4206 0.0 0
M  V30 20 C -6.5942 -3.67 0.0 0
M  V30 21 O -9.2106 -2.1546 0.0 0
M  V30 22 C -10.5247 -1.3969 0.0 0
M  V30 END ATOM
M  V30 BEGIN BOND
M  V30 1 2 1 2
M  V30 2 1 2 3
M  V30 3 1 2 4
M  V30 4 1 3 5
M  V30 5 1 3 6
M  V30 6 1 4 7
M  V30 7 2 5 8
M  V30 8 1 5 9
M  V30 9 1 6 10
M  V30 10 2 7 11
M  V30 11 1 8 12
M  V30 12 2 9 13
M  V30 13 2 10 14
M  V30 14 1 10 15
M  V30 15 2 12 16
M  V30 16 1 17 15 CFG=1
M  V30 17 1 15 18
M  V30 18 1 17 19
M  V30 19 1 17 20
M  V30 20 1 19 21
M  V30 21 1 21 22
M  V30 22 1 7 8
M  V30 23 1 13 16
M  V30 END BOND
M  V30 BEGIN COLLECTION
M  V30 MDLV30/STERAC1 ATOMS=(1 17)
M  V30 END COLLECTION
M  V30 END CTAB
M  END
>  <Structure No>
869

>  <Catalog ID>
Z599749506

>  <MW (desalted)>
305.329

>  <ClogP>
1.152

>  <HBD>
1

>  <TPSA>
78.950

>  <RotBonds>
5

>  <Target>
parp2

>  <fromRegid>


>  <Similarity>


$$$$
Compound 870
Actelion Java MolfileCreator 2.0

  0  0  0  0  0  0              0 V3000
M  V30 BEGIN CTAB
M  V30 COUNTS 26 28 0 0 0
M  V30 BEGIN ATOM
M  V30 1 O 0.0 0.0 0.0 0
M  V30 2 C -0.0118 -1.4992 0.0 0
M  V30 3 N -1.3326 -2.237 0.0 0
M  V30 4 N 1.2851 -2.237 0.0 0
M  V30 5 C -1.3445 -3.7363 0.0 0
M  V30 6 C -2.6653 -4.4859 0.0 0
M  V30 7 C -0.0475 -4.4859 0.0 0
M  V30 8 C -2.6772 -5.9852 0.0 0
M  V30 9 C -0.0594 -5.9852 0.0 0
M  V30 10 C -1.3802 -6.7229 0.0 0
M  V30 11 C -1.3921 -8.2222 0.0 0
M  V30 12 N -0.0951 -8.96 0.0 0
M  V30 13 C -0.107 -10.4592 0.0 0
M  V30 14 O -1.4278 -11.197 0.0 0
M  V30 15 C 1.1899 -11.197 0.0 0
M  V30 16 N 1.178 -12.6963 0.0 0
M  V30 17 C 2.4869 -10.4354 0.0 0
M  V30 18 C 2.475 -13.434 0.0 0
M  V30 19 C 3.7839 -11.1732 0.0 0
M  V30 20 O 2.4631 -14.9333 0.0 0
M  V30 21 C 3.772 -12.6725 0.0 0
M  V30 22 C 5.0809 -10.4116 0.0 0
M  V30 23 C 3.7601 -15.6829 0.0 0
M  V30 24 C 5.069 -13.4102 0.0 0
M  V30 25 C 6.3779 -11.1494 0.0 0
M  V30 26 C 6.366 -12.6487 0.0 0
M  V30 END ATOM
M  V30 BEGIN BOND
M  V30 1 2 1 2
M  V30 2 1 2 3
M  V30 3 1 2 4
M  V30 4 1 3 5
M  V30 5 2 5 6
M  V30 6 1 5 7
M  V30 7 1 6 8
M  V30 8 2 7 9
M  V30 9 2 8 10
M  V30 10 1 10 11
M  V30 11 1 11 12
M  V30 12 1 12 13
M  V30 13 2 13 14
M  V30 14 1 13 15
M  V30 15 1 15 16
M  V30 16 2 15 17
M  V30 17 2 16 18
M  V30 18 1 17 19
M  V30 19 1 18 20
M  V30 20 1 18 21
M  V30 21 2 19 22
M  V30 22 1 20 23
M  V30 23 2 21 24
M  V30 24 1 22 25
M  V30 25 1 24 26
M  V30 26 1 9 10
M  V30 27 1 19 21
M  V30 28 2 25 26
M  V30 END BOND
M  V30 END CTAB
M  END
>  <Structure No>
870

>  <Catalog ID>
Z850739964

>  <MW (desalted)>
350.371

>  <ClogP>
2.759

>  <HBD>
3

>  <TPSA>
106.340

>  <RotBonds>
5

>  <Target>
ATM

>  <fromRegid>


>  <Similarity>


$$$$
Compound 871
Actelion Java MolfileCreator 2.0

  0  0  0  0  0  0              0 V3000
M  V30 BEGIN CTAB
M  V30 COUNTS 28 30 0 0 0
M  V30 BEGIN ATOM
M  V30 1 O 0.0 0.0 0.0 0
M  V30 2 C 0.4491 -1.4183 0.0 0
M  V30 3 N -0.4491 -2.6238 0.0 0
M  V30 4 C 1.8674 -1.8674 0.0 0
M  V30 5 C 0.4254 -3.8294 0.0 0
M  V30 6 C -1.9619 -2.612 0.0 0
M  V30 7 C 1.8556 -3.3566 0.0 0
M  V30 8 C 3.1557 -1.111 0.0 0
M  V30 9 O -0.0472 -5.2477 0.0 0
M  V30 10 C 3.1439 -4.0894 0.0 0
M  V30 11 C 4.444 -1.8438 0.0 0
M  V30 12 C 4.4322 -3.333 0.0 0
M  V30 13 C 5.7323 -1.0873 0.0 0
M  V30 14 O 7.0206 -1.8201 0.0 0
M  V30 15 N 5.7205 0.4254 0.0 0
M  V30 16 C 7.0088 1.1819 0.0 0
M  V30 17 C 4.4085 1.1819 0.0 0
M  V30 18 C 6.9969 2.6947 0.0 0
M  V30 19 C 8.2852 3.4512 0.0 0
M  V30 20 C 5.685 3.4512 0.0 0
M  V30 21 C 8.2734 4.964 0.0 0
M  V30 22 C 5.6732 4.964 0.0 0
M  V30 23 C 6.9615 5.7205 0.0 0
M  V30 24 N 6.9497 7.2333 0.0 0
M  V30 25 C 5.6377 8.0016 0.0 0
M  V30 26 C 8.238 8.0016 0.0 0
M  V30 27 C 5.6259 9.5144 0.0 0
M  V30 28 C 9.5263 7.257 0.0 0
M  V30 END ATOM
M  V30 BEGIN BOND
M  V30 1 2 1 2
M  V30 2 1 2 3
M  V30 3 1 2 4
M  V30 4 1 3 5
M  V30 5 1 3 6
M  V30 6 2 4 7
M  V30 7 1 4 8
M  V30 8 2 5 9
M  V30 9 1 7 10
M  V30 10 2 8 11
M  V30 11 2 10 12
M  V30 12 1 11 13
M  V30 13 2 13 14
M  V30 14 1 13 15
M  V30 15 1 15 16
M  V30 16 1 15 17
M  V30 17 1 16 18
M  V30 18 2 18 19
M  V30 19 1 18 20
M  V30 20 1 19 21
M  V30 21 2 20 22
M  V30 22 2 21 23
M  V30 23 1 23 24
M  V30 24 1 24 25
M  V30 25 1 24 26
M  V30 26 1 25 27
M  V30 27 1 26 28
M  V30 28 1 5 7
M  V30 29 1 11 12
M  V30 30 1 22 23
M  V30 END BOND
M  V30 END CTAB
M  END
>  <Structure No>
871

>  <Catalog ID>
Z109805680

>  <MW (desalted)>
379.452

>  <ClogP>
3.665

>  <HBD>
0

>  <TPSA>
60.930

>  <RotBonds>
6

>  <Target>
Poly [ADP-ribose] polymerase-1

>  <fromRegid>
CHEMBL611980

>  <Similarity>
0.89

$$$$
Compound 872
Actelion Java MolfileCreator 2.0

  0  0  0  0  0  0              0 V3000
M  V30 BEGIN CTAB
M  V30 COUNTS 28 31 0 0 0
M  V30 BEGIN ATOM
M  V30 1 O 0.0 0.0 0.0 0
M  V30 2 C -0.0118 -1.4893 0.0 0
M  V30 3 N -1.3238 -2.2221 0.0 0
M  V30 4 C 1.2765 -2.2221 0.0 0
M  V30 5 N -1.3356 -3.7115 0.0 0
M  V30 6 C 1.2647 -3.7115 0.0 0
M  V30 7 C 2.5649 -1.4657 0.0 0
M  V30 8 C -0.0472 -4.4562 0.0 0
M  V30 9 C 2.5531 -4.4562 0.0 0
M  V30 10 C 3.8533 -2.1985 0.0 0
M  V30 11 C -0.0591 -5.9455 0.0 0
M  V30 12 C 3.8415 -3.6997 0.0 0
M  V30 13 C -1.3711 -6.6902 0.0 0
M  V30 14 O -2.6831 -5.9219 0.0 0
M  V30 15 N -1.3829 -8.1795 0.0 0
M  V30 16 C -2.695 -8.9124 0.0 0
M  V30 17 C -2.7068 -10.4017 0.0 0
M  V30 18 C -4.007 -8.1559 0.0 0
M  V30 19 C -4.0188 -11.1464 0.0 0
M  V30 20 C -5.319 -8.8887 0.0 0
M  V30 21 C -5.3309 -10.3781 0.0 0
M  V30 22 N -6.6429 -11.1228 0.0 0
M  V30 23 C -7.9549 -10.3544 0.0 0
M  V30 24 C -6.6547 -12.6121 0.0 0
M  V30 25 C -9.267 -11.0991 0.0 0
M  V30 26 C -7.9668 -13.345 0.0 0
M  V30 27 O -10.579 -10.3308 0.0 0
M  V30 28 N -9.2788 -12.5885 0.0 0
M  V30 END ATOM
M  V30 BEGIN BOND
M  V30 1 2 1 2
M  V30 2 1 2 3
M  V30 3 1 2 4
M  V30 4 1 3 5
M  V30 5 2 4 6
M  V30 6 1 4 7
M  V30 7 2 5 8
M  V30 8 1 6 9
M  V30 9 2 7 10
M  V30 10 1 8 11
M  V30 11 2 9 12
M  V30 12 1 11 13
M  V30 13 2 13 14
M  V30 14 1 13 15
M  V30 15 1 15 16
M  V30 16 2 16 17
M  V30 17 1 16 18
M  V30 18 1 17 19
M  V30 19 2 18 20
M  V30 20 2 19 21
M  V30 21 1 21 22
M  V30 22 1 22 23
M  V30 23 1 22 24
M  V30 24 1 23 25
M  V30 25 1 24 26
M  V30 26 2 25 27
M  V30 27 1 25 28
M  V30 28 1 6 8
M  V30 29 1 10 12
M  V30 30 1 20 21
M  V30 31 1 26 28
M  V30 END BOND
M  V30 END CTAB
M  END
>  <Structure No>
872

>  <Catalog ID>
Z381571198

>  <MW (desalted)>
377.397

>  <ClogP>
-0.244

>  <HBD>
3

>  <TPSA>
102.900

>  <RotBonds>
4

>  <Target>
Poly [ADP-ribose] polymerase-1

>  <fromRegid>
CHEMBL3105426

>  <Similarity>
0.9

$$$$
Compound 873
Actelion Java MolfileCreator 2.0

  0  0  0  0  0  0              0 V3000
M  V30 BEGIN CTAB
M  V30 COUNTS 27 30 0 0 0
M  V30 BEGIN ATOM
M  V30 1 S 0.0 0.0 0.0 0
M  V30 2 O 1.4802 0.0117 0.0 0
M  V30 3 O 0.1409 -1.4685 0.0 0
M  V30 4 C -1.4685 -0.2937 0.0 0
M  V30 5 C 0.1409 1.492 0.0 0
M  V30 6 C -2.2204 1.0103 0.0 0 CFG=2
M  V30 7 C -1.2335 2.1146 0.0 0
M  V30 8 C -3.7124 1.1748 0.0 0
M  V30 9 C -4.335 2.5493 0.0 0
M  V30 10 O -5.8036 2.8665 0.0 0
M  V30 11 N -3.5949 3.8534 0.0 0
M  V30 12 C -5.968 4.3585 0.0 0
M  V30 13 N -4.6052 4.9694 0.0 0
M  V30 14 S -7.2721 5.1222 0.0 0
M  V30 15 C -7.2838 6.6259 0.0 0
M  V30 16 C -8.5879 7.3896 0.0 0
M  V30 17 N -9.8919 6.6494 0.0 0
M  V30 18 N -8.5996 8.8933 0.0 0
M  V30 19 C -11.196 7.4131 0.0 0
M  V30 20 C -9.9037 9.6452 0.0 0
M  V30 21 C -11.2077 8.9168 0.0 0
M  V30 22 C -12.5 6.6729 0.0 0
M  V30 23 O -9.9154 11.149 0.0 0
M  V30 24 C -12.5118 9.6687 0.0 0
M  V30 25 C -13.8041 7.4366 0.0 0
M  V30 26 C -12.5118 5.1927 0.0 0
M  V30 27 C -13.8158 8.9403 0.0 0
M  V30 END ATOM
M  V30 BEGIN BOND
M  V30 1 2 1 2
M  V30 2 2 1 3
M  V30 3 1 1 4
M  V30 4 1 1 5
M  V30 5 1 4 6
M  V30 6 1 5 7
M  V30 7 1 6 8 CFG=1
M  V30 8 1 8 9
M  V30 9 1 9 10
M  V30 10 2 9 11
M  V30 11 1 10 12
M  V30 12 1 11 13
M  V30 13 1 12 14
M  V30 14 1 14 15
M  V30 15 1 15 16
M  V30 16 2 16 17
M  V30 17 1 16 18
M  V30 18 1 17 19
M  V30 19 1 18 20
M  V30 20 2 19 21
M  V30 21 1 19 22
M  V30 22 2 20 23
M  V30 23 1 21 24
M  V30 24 2 22 25
M  V30 25 1 22 26
M  V30 26 2 24 27
M  V30 27 1 6 7
M  V30 28 2 12 13
M  V30 29 1 20 21
M  V30 30 1 25 27
M  V30 END BOND
M  V30 BEGIN COLLECTION
M  V30 MDLV30/STERAC1 ATOMS=(1 6)
M  V30 END COLLECTION
M  V30 END CTAB
M  END
>  <Structure No>
873

>  <Catalog ID>
Z113879598

>  <MW (desalted)>
406.479

>  <ClogP>
-1.766

>  <HBD>
1

>  <TPSA>
114.520

>  <RotBonds>
5

>  <Target>
parp2

>  <fromRegid>


>  <Similarity>


$$$$
Compound 874
Actelion Java MolfileCreator 2.0

  0  0  0  0  0  0              0 V3000
M  V30 BEGIN CTAB
M  V30 COUNTS 25 26 0 0 0
M  V30 BEGIN ATOM
M  V30 1 Cl 0.0 0.0 0.0 0
M  V30 2 C -1.3046 -0.7404 0.0 0
M  V30 3 C -1.3163 -2.2214 0.0 0
M  V30 4 C -2.6092 0.0235 0.0 0
M  V30 5 C -2.621 -2.9501 0.0 0
M  V30 6 C -3.9139 -0.7169 0.0 0
M  V30 7 Cl -2.6327 -4.431 0.0 0
M  V30 8 C -3.9256 -2.1978 0.0 0
M  V30 9 O -5.2185 0.047 0.0 0
M  V30 10 C -6.5231 -0.6934 0.0 0
M  V30 11 C -7.8278 0.0705 0.0 0
M  V30 12 O -7.8395 1.5749 0.0 0
M  V30 13 N -9.1324 -0.6699 0.0 0
M  V30 14 C -10.437 0.094 0.0 0
M  V30 15 C -10.4488 1.5984 0.0 0
M  V30 16 C -11.7417 -0.6464 0.0 0
M  V30 17 C -11.7534 2.3506 0.0 0
M  V30 18 C -13.0463 0.1175 0.0 0
M  V30 19 C -11.7652 3.8551 0.0 0
M  V30 20 C -13.058 1.6102 0.0 0
M  V30 21 C -14.3509 -0.6229 0.0 0
M  V30 22 O -10.484 4.6073 0.0 0
M  V30 23 N -13.0698 4.6073 0.0 0
M  V30 24 O -15.6556 0.141 0.0 0
M  V30 25 N -14.3627 -2.1038 0.0 0
M  V30 END ATOM
M  V30 BEGIN BOND
M  V30 1 1 1 2
M  V30 2 2 2 3
M  V30 3 1 2 4
M  V30 4 1 3 5
M  V30 5 2 4 6
M  V30 6 1 5 7
M  V30 7 2 5 8
M  V30 8 1 6 9
M  V30 9 1 9 10
M  V30 10 1 10 11
M  V30 11 2 11 12
M  V30 12 1 11 13
M  V30 13 1 13 14
M  V30 14 2 14 15
M  V30 15 1 14 16
M  V30 16 1 15 17
M  V30 17 2 16 18
M  V30 18 1 17 19
M  V30 19 2 17 20
M  V30 20 1 18 21
M  V30 21 2 19 22
M  V30 22 1 19 23
M  V30 23 2 21 24
M  V30 24 1 21 25
M  V30 25 1 6 8
M  V30 26 1 18 20
M  V30 END BOND
M  V30 END CTAB
M  END
>  <Structure No>
874

>  <Catalog ID>
Z17833956

>  <MW (desalted)>
382.198

>  <ClogP>
1.831

>  <HBD>
3

>  <TPSA>
124.510

>  <RotBonds>
6

>  <Target>
parp14

>  <fromRegid>


>  <Similarity>


$$$$
Compound 875
Actelion Java MolfileCreator 2.0

  0  0  0  0  0  0              0 V3000
M  V30 BEGIN CTAB
M  V30 COUNTS 25 28 0 0 0
M  V30 BEGIN ATOM
M  V30 1 S 0.0 0.0 0.0 0
M  V30 2 C -1.3147 0.7699 0.0 0
M  V30 3 C 1.291 0.7699 0.0 0
M  V30 4 N -1.4806 2.2742 0.0 0
M  V30 5 N -2.7006 0.1658 0.0 0
M  V30 6 C 2.5821 0.0236 0.0 0
M  V30 7 N -2.9612 2.594 0.0 0
M  V30 8 C -3.0204 -1.291 0.0 0
M  V30 9 C -3.7192 1.291 0.0 0
M  V30 10 N 3.8732 0.7936 0.0 0
M  V30 11 N 2.5703 -1.4687 0.0 0
M  V30 12 C -1.9188 -2.286 0.0 0
M  V30 13 C -4.4655 -1.7411 0.0 0
M  V30 14 C 5.1643 0.0473 0.0 0
M  V30 15 C 3.8614 -2.2149 0.0 0
M  V30 16 C -2.2386 -3.7429 0.0 0
M  V30 17 C -0.4974 -1.8122 0.0 0
M  V30 18 C -4.7853 -3.1981 0.0 0
M  V30 19 C 5.1525 -1.445 0.0 0
M  V30 20 C 6.4554 0.8172 0.0 0
M  V30 21 O 3.8495 -3.7074 0.0 0
M  V30 22 C -3.6837 -4.193 0.0 0
M  V30 23 C 6.4435 -2.1912 0.0 0
M  V30 24 C 7.7465 0.071 0.0 0
M  V30 25 C 7.7346 -1.4213 0.0 0
M  V30 END ATOM
M  V30 BEGIN BOND
M  V30 1 1 1 2
M  V30 2 1 1 3
M  V30 3 2 2 4
M  V30 4 1 2 5
M  V30 5 1 3 6
M  V30 6 1 4 7
M  V30 7 1 5 8
M  V30 8 1 5 9
M  V30 9 2 6 10
M  V30 10 1 6 11
M  V30 11 2 8 12
M  V30 12 1 8 13
M  V30 13 1 10 14
M  V30 14 1 11 15
M  V30 15 1 12 16
M  V30 16 1 12 17
M  V30 17 2 13 18
M  V30 18 2 14 19
M  V30 19 1 14 20
M  V30 20 2 15 21
M  V30 21 2 16 22
M  V30 22 1 19 23
M  V30 23 2 20 24
M  V30 24 2 23 25
M  V30 25 2 7 9
M  V30 26 1 15 19
M  V30 27 1 18 22
M  V30 28 1 24 25
M  V30 END BOND
M  V30 END CTAB
M  END
>  <Structure No>
875

>  <Catalog ID>
Z17844323

>  <MW (desalted)>
349.410

>  <ClogP>
2.065

>  <HBD>
1

>  <TPSA>
72.170

>  <RotBonds>
4

>  <Target>
parp3

>  <fromRegid>


>  <Similarity>


$$$$
Compound 876
Actelion Java MolfileCreator 2.0

  0  0  0  0  0  0              0 V3000
M  V30 BEGIN CTAB
M  V30 COUNTS 26 29 0 0 0
M  V30 BEGIN ATOM
M  V30 1 S 0.0 0.0 0.0 0
M  V30 2 C 0.8736 1.2278 0.0 0
M  V30 3 C 0.6021 -1.3576 0.0 0
M  V30 4 N 2.3612 1.2396 0.0 0
M  V30 5 N 0.4014 2.6681 0.0 0
M  V30 6 C -0.2951 -2.5619 0.0 0
M  V30 7 N 2.8098 2.6799 0.0 0
M  V30 8 C -1.0389 3.1404 0.0 0
M  V30 9 C 1.6056 3.5654 0.0 0
M  V30 10 O -1.8063 -2.5501 0.0 0
M  V30 11 N 0.1534 -3.9786 0.0 0
M  V30 12 C -1.3576 4.6161 0.0 0
M  V30 13 C -2.1605 2.1487 0.0 0
M  V30 14 C 1.5938 5.0766 0.0 0
M  V30 15 N -2.2785 -3.9668 0.0 0
M  V30 16 C -1.0743 -4.8522 0.0 0
M  V30 17 C -2.798 5.0884 0.0 0
M  V30 18 C -0.2597 5.6314 0.0 0
M  V30 19 C -3.6008 2.6209 0.0 0
M  V30 20 C -1.0861 -6.3398 0.0 0
M  V30 21 C -3.9196 4.0967 0.0 0
M  V30 22 C 0.2007 -7.0718 0.0 0
M  V30 23 C -2.3966 -7.0718 0.0 0
M  V30 24 C 0.1888 -8.5593 0.0 0
M  V30 25 C -2.4084 -8.5593 0.0 0
M  V30 26 C -1.1215 -9.3031 0.0 0
M  V30 END ATOM
M  V30 BEGIN BOND
M  V30 1 1 1 2
M  V30 2 1 1 3
M  V30 3 2 2 4
M  V30 4 1 2 5
M  V30 5 1 3 6
M  V30 6 1 4 7
M  V30 7 1 5 8
M  V30 8 1 5 9
M  V30 9 1 6 10
M  V30 10 2 6 11
M  V30 11 2 8 12
M  V30 12 1 8 13
M  V30 13 1 9 14
M  V30 14 1 10 15
M  V30 15 1 11 16
M  V30 16 1 12 17
M  V30 17 1 12 18
M  V30 18 2 13 19
M  V30 19 1 16 20
M  V30 20 2 17 21
M  V30 21 2 20 22
M  V30 22 1 20 23
M  V30 23 1 22 24
M  V30 24 2 23 25
M  V30 25 2 24 26
M  V30 26 2 7 9
M  V30 27 2 15 16
M  V30 28 1 19 21
M  V30 29 1 25 26
M  V30 END BOND
M  V30 END CTAB
M  END
>  <Structure No>
876

>  <Catalog ID>
Z17854721

>  <MW (desalted)>
363.436

>  <ClogP>
3.621

>  <HBD>
0

>  <TPSA>
69.630

>  <RotBonds>
4

>  <Target>
Poly [ADP-ribose] polymerase-1

>  <fromRegid>
CHEMBL1898239

>  <Similarity>
0.88

$$$$
Compound 877
Actelion Java MolfileCreator 2.0

  0  0  0  0  0  0              0 V3000
M  V30 BEGIN CTAB
M  V30 COUNTS 24 25 0 0 0
M  V30 BEGIN ATOM
M  V30 1 F 0.0 0.0 0.0 0
M  V30 2 C -1.302 0.7507 0.0 0
M  V30 3 F -2.0528 -0.5278 0.0 0
M  V30 4 F -0.563 2.0528 0.0 0
M  V30 5 C -2.6041 1.5014 0.0 0
M  V30 6 C -2.6158 3.0029 0.0 0
M  V30 7 C -3.9062 0.7742 0.0 0
M  V30 8 C -3.9179 3.7654 0.0 0
M  V30 9 C -5.2083 1.5249 0.0 0
M  V30 10 C -5.22 3.0264 0.0 0
M  V30 11 O -6.5221 3.7889 0.0 0
M  V30 12 C -7.8242 3.0499 0.0 0
M  V30 13 C -9.1263 3.8124 0.0 0
M  V30 14 O -9.138 5.3139 0.0 0
M  V30 15 N -10.4283 3.0733 0.0 0
M  V30 16 C -11.7304 3.8358 0.0 0
M  V30 17 C -13.0325 3.0968 0.0 0
M  V30 18 C -11.7421 5.3373 0.0 0
M  V30 19 C -14.3346 3.8593 0.0 0
M  V30 20 C -13.0442 6.0881 0.0 0
M  V30 21 C -15.6367 3.1203 0.0 0
M  V30 22 C -14.3463 5.3608 0.0 0
M  V30 23 O -15.6484 1.6422 0.0 0
M  V30 24 C -16.9387 3.8827 0.0 0
M  V30 END ATOM
M  V30 BEGIN BOND
M  V30 1 1 1 2
M  V30 2 1 2 3
M  V30 3 1 2 4
M  V30 4 1 2 5
M  V30 5 2 5 6
M  V30 6 1 5 7
M  V30 7 1 6 8
M  V30 8 2 7 9
M  V30 9 2 8 10
M  V30 10 1 10 11
M  V30 11 1 11 12
M  V30 12 1 12 13
M  V30 13 2 13 14
M  V30 14 1 13 15
M  V30 15 1 15 16
M  V30 16 2 16 17
M  V30 17 1 16 18
M  V30 18 1 17 19
M  V30 19 2 18 20
M  V30 20 1 19 21
M  V30 21 2 19 22
M  V30 22 2 21 23
M  V30 23 1 21 24
M  V30 24 1 9 10
M  V30 25 1 20 22
M  V30 END BOND
M  V30 END CTAB
M  END
>  <Structure No>
877

>  <Catalog ID>
Z17856233

>  <MW (desalted)>
337.293

>  <ClogP>
3.714

>  <HBD>
1

>  <TPSA>
55.400

>  <RotBonds>
6

>  <Target>
parp14

>  <fromRegid>


>  <Similarity>


$$$$
Compound 878
Actelion Java MolfileCreator 2.0

  0  0  0  0  0  0              0 V3000
M  V30 BEGIN CTAB
M  V30 COUNTS 23 23 0 0 0
M  V30 BEGIN ATOM
M  V30 1 F 0.0 0.0 0.0 0
M  V30 2 C -1.305 0.7524 0.0 0
M  V30 3 F -2.0575 -0.529 0.0 0
M  V30 4 F -0.5761 2.0575 0.0 0
M  V30 5 C -2.6101 1.5049 0.0 0 CFG=1
M  V30 6 O -3.9151 0.7759 0.0 0
M  V30 7 C -2.6218 3.0098 0.0 0
M  V30 8 N -3.9269 3.7623 0.0 0
M  V30 9 C -3.9386 5.2672 0.0 0
M  V30 10 O -2.6571 6.0197 0.0 0
M  V30 11 N -5.2437 6.0197 0.0 0
M  V30 12 C -5.2554 7.5246 0.0 0
M  V30 13 C -6.5605 8.277 0.0 0
M  V30 14 C -3.9739 8.277 0.0 0
M  V30 15 O -7.8655 7.5481 0.0 0
M  V30 16 C -6.5722 9.782 0.0 0
M  V30 17 C -3.9857 9.782 0.0 0
M  V30 18 C -9.1706 8.3006 0.0 0
M  V30 19 C -5.2907 10.5344 0.0 0
M  V30 20 C -10.4756 7.5716 0.0 0
M  V30 21 C -11.7807 8.3241 0.0 0
M  V30 22 O -11.7925 9.829 0.0 0
M  V30 23 N -13.0858 7.5951 0.0 0
M  V30 END ATOM
M  V30 BEGIN BOND
M  V30 1 1 1 2
M  V30 2 1 2 3
M  V30 3 1 2 4
M  V30 4 1 2 5
M  V30 5 1 5 6 CFG=1
M  V30 6 1 5 7
M  V30 7 1 7 8
M  V30 8 1 8 9
M  V30 9 2 9 10
M  V30 10 1 9 11
M  V30 11 1 11 12
M  V30 12 2 12 13
M  V30 13 1 12 14
M  V30 14 1 13 15
M  V30 15 1 13 16
M  V30 16 2 14 17
M  V30 17 1 15 18
M  V30 18 2 16 19
M  V30 19 1 18 20
M  V30 20 1 20 21
M  V30 21 2 21 22
M  V30 22 1 21 23
M  V30 23 1 17 19
M  V30 END BOND
M  V30 BEGIN COLLECTION
M  V30 MDLV30/STERAC1 ATOMS=(1 5)
M  V30 END COLLECTION
M  V30 END CTAB
M  END
>  <Structure No>
878

>  <Catalog ID>
Z596236262

>  <MW (desalted)>
335.279

>  <ClogP>
0.371

>  <HBD>
4

>  <TPSA>
113.680

>  <RotBonds>
8

>  <Target>
ATM

>  <fromRegid>


>  <Similarity>


$$$$
Compound 879
Actelion Java MolfileCreator 2.0

  0  0  0  0  0  0              0 V3000
M  V30 BEGIN CTAB
M  V30 COUNTS 32 36 0 0 0
M  V30 BEGIN ATOM
M  V30 1 O 0.0 0.0 0.0 0
M  V30 2 C -1.0163 1.1226 0.0 0
M  V30 3 N -2.4935 0.8272 0.0 0
M  V30 4 C -0.5672 2.5644 0.0 0
M  V30 5 C -2.9662 -0.5908 0.0 0
M  V30 6 C 0.8508 3.0371 0.0 0
M  V30 7 C -1.4654 3.7935 0.0 0
M  V30 8 C -4.4434 -0.8863 0.0 0
M  V30 9 C -1.9735 -1.6899 0.0 0
M  V30 10 N 2.139 2.2926 0.0 0
M  V30 11 N 0.839 4.5498 0.0 0
M  V30 12 N -0.5908 5.0225 0.0 0
M  V30 13 C -4.9161 -2.3044 0.0 0
M  V30 14 C -2.4462 -3.108 0.0 0
M  V30 15 C 3.4271 3.0489 0.0 0
M  V30 16 C 2.1271 5.3061 0.0 0
M  V30 17 C -3.9234 -3.4035 0.0 0
M  V30 18 C 3.4153 4.5616 0.0 0
M  V30 19 C 2.1153 6.8188 0.0 0
M  V30 20 N -4.3962 -4.8216 0.0 0
M  V30 21 C 0.8036 7.5751 0.0 0
M  V30 22 C 3.4035 7.5751 0.0 0
M  V30 23 C -5.8734 -5.117 0.0 0
M  V30 24 C -3.4035 -5.9207 0.0 0
M  V30 25 C 0.7917 9.0878 0.0 0
M  V30 26 C 3.3916 9.0878 0.0 0
M  V30 27 C -6.3461 -6.5352 0.0 0
M  V30 28 C -3.8762 -7.3388 0.0 0
M  V30 29 C 2.0799 9.8441 0.0 0
M  V30 30 N -5.3534 -7.6342 0.0 0
M  V30 31 C -5.8261 -9.0524 0.0 0
M  V30 32 C -4.8334 -10.1514 0.0 0
M  V30 END ATOM
M  V30 BEGIN BOND
M  V30 1 2 1 2
M  V30 2 1 2 3
M  V30 3 1 2 4
M  V30 4 1 3 5
M  V30 5 2 4 6
M  V30 6 1 4 7
M  V30 7 2 5 8
M  V30 8 1 5 9
M  V30 9 1 6 10
M  V30 10 1 6 11
M  V30 11 2 7 12
M  V30 12 1 8 13
M  V30 13 2 9 14
M  V30 14 2 10 15
M  V30 15 1 11 16
M  V30 16 2 13 17
M  V30 17 1 15 18
M  V30 18 1 16 19
M  V30 19 1 17 20
M  V30 20 2 19 21
M  V30 21 1 19 22
M  V30 22 1 20 23
M  V30 23 1 20 24
M  V30 24 1 21 25
M  V30 25 2 22 26
M  V30 26 1 23 27
M  V30 27 1 24 28
M  V30 28 2 25 29
M  V30 29 1 27 30
M  V30 30 1 30 31
M  V30 31 1 31 32
M  V30 32 1 11 12
M  V30 33 1 14 17
M  V30 34 2 16 18
M  V30 35 1 26 29
M  V30 36 1 28 30
M  V30 END BOND
M  V30 END CTAB
M  END
>  <Structure No>
879

>  <Catalog ID>
Z466174702

>  <MW (desalted)>
426.514

>  <ClogP>
4.110

>  <HBD>
1

>  <TPSA>
65.770

>  <RotBonds>
5

>  <Target>
Serine/threonine-protein kinase Chk1

>  <fromRegid>
CHEMBL1997759

>  <Similarity>
0.86

$$$$
Compound 880
Actelion Java MolfileCreator 2.0

  0  0  0  0  0  0              0 V3000
M  V30 BEGIN CTAB
M  V30 COUNTS 32 36 0 0 0
M  V30 BEGIN ATOM
M  V30 1 Cl 0.0 0.0 0.0 0
M  V30 2 C 1.4725 -0.1413 0.0 0
M  V30 3 C 2.3442 1.0837 0.0 0
M  V30 4 C 2.0732 -1.496 0.0 0
M  V30 5 C 1.7198 2.462 0.0 0
M  V30 6 C 3.8167 0.9424 0.0 0
M  V30 7 C 3.5458 -1.6374 0.0 0
M  V30 8 N 0.2473 2.78 0.0 0
M  V30 9 N 2.4502 3.7696 0.0 0
M  V30 10 C 4.4175 -0.4123 0.0 0
M  V30 11 O 0.0824 4.2761 0.0 0
M  V30 12 C 1.4371 4.8887 0.0 0
M  V30 13 C 1.7316 6.3612 0.0 0
M  V30 14 S 0.6125 7.3743 0.0 0
M  V30 15 C -0.8246 6.9266 0.0 0
M  V30 16 N -1.2958 5.513 0.0 0
M  V30 17 N -2.0497 7.8219 0.0 0
M  V30 18 N -2.8036 5.5248 0.0 0
M  V30 19 C -2.0615 9.3298 0.0 0
M  V30 20 C -3.2748 6.9502 0.0 0
M  V30 21 C -0.7774 10.0837 0.0 0
M  V30 22 C -3.3691 10.0837 0.0 0
M  V30 23 C -4.712 7.4214 0.0 0
M  V30 24 C -0.7892 11.5915 0.0 0
M  V30 25 C 0.5065 9.3533 0.0 0
M  V30 26 C -3.3808 11.5915 0.0 0
M  V30 27 C -5.8311 6.4319 0.0 0
M  V30 28 C -5.03 8.8939 0.0 0
M  V30 29 C -2.0968 12.3455 0.0 0
M  V30 30 C -7.2683 6.9031 0.0 0
M  V30 31 C -6.4672 9.3651 0.0 0
M  V30 32 N -7.5863 8.3756 0.0 0
M  V30 END ATOM
M  V30 BEGIN BOND
M  V30 1 1 1 2
M  V30 2 2 2 3
M  V30 3 1 2 4
M  V30 4 1 3 5
M  V30 5 1 3 6
M  V30 6 2 4 7
M  V30 7 2 5 8
M  V30 8 1 5 9
M  V30 9 2 6 10
M  V30 10 1 8 11
M  V30 11 2 9 12
M  V30 12 1 12 13
M  V30 13 1 13 14
M  V30 14 1 14 15
M  V30 15 2 15 16
M  V30 16 1 15 17
M  V30 17 1 16 18
M  V30 18 1 17 19
M  V30 19 1 17 20
M  V30 20 2 19 21
M  V30 21 1 19 22
M  V30 22 1 20 23
M  V30 23 1 21 24
M  V30 24 1 21 25
M  V30 25 2 22 26
M  V30 26 2 23 27
M  V30 27 1 23 28
M  V30 28 2 24 29
M  V30 29 1 27 30
M  V30 30 2 28 31
M  V30 31 2 30 32
M  V30 32 1 7 10
M  V30 33 1 11 12
M  V30 34 2 18 20
M  V30 35 1 26 29
M  V30 36 1 31 32
M  V30 END BOND
M  V30 END CTAB
M  END
>  <Structure No>
880

>  <Catalog ID>
Z92073297

>  <MW (desalted)>
460.939

>  <ClogP>
4.517

>  <HBD>
0

>  <TPSA>
82.520

>  <RotBonds>
5

>  <Target>
Poly [ADP-ribose] polymerase-1

>  <fromRegid>
CHEMBL1552719

>  <Similarity>
0.86

$$$$
Compound 881
Actelion Java MolfileCreator 2.0

  0  0  0  0  0  0              0 V3000
M  V30 BEGIN CTAB
M  V30 COUNTS 23 25 0 0 0
M  V30 BEGIN ATOM
M  V30 1 F 0.0 0.0 0.0 0
M  V30 2 C -0.0118 1.5178 0.0 0
M  V30 3 C 1.2807 2.2768 0.0 0
M  V30 4 C -1.3281 2.2768 0.0 0
M  V30 5 C 1.2688 3.7947 0.0 0
M  V30 6 C -1.34 3.7947 0.0 0
M  V30 7 C 2.5614 4.5536 0.0 0
M  V30 8 C -0.0474 4.5536 0.0 0
M  V30 9 O 2.5495 6.0715 0.0 0
M  V30 10 N 3.854 3.8065 0.0 0
M  V30 11 C 5.1466 4.5655 0.0 0
M  V30 12 C 6.4391 3.8184 0.0 0
M  V30 13 C 7.7317 4.5773 0.0 0
M  V30 14 N 9.0243 3.8303 0.0 0
M  V30 15 C 9.0124 2.3361 0.0 0
M  V30 16 C 10.3169 4.5892 0.0 0
M  V30 17 C 10.305 1.6009 0.0 0
M  V30 18 C 11.6095 3.8421 0.0 0
M  V30 19 C 11.5976 2.3598 0.0 0
M  V30 20 C 10.2932 0.1067 0.0 0
M  V30 21 C 12.8902 1.6246 0.0 0
M  V30 22 C 11.5858 -0.6285 0.0 0
M  V30 23 C 12.8783 0.1304 0.0 0
M  V30 END ATOM
M  V30 BEGIN BOND
M  V30 1 1 1 2
M  V30 2 2 2 3
M  V30 3 1 2 4
M  V30 4 1 3 5
M  V30 5 2 4 6
M  V30 6 1 5 7
M  V30 7 2 5 8
M  V30 8 2 7 9
M  V30 9 1 7 10
M  V30 10 1 10 11
M  V30 11 1 11 12
M  V30 12 1 12 13
M  V30 13 1 13 14
M  V30 14 1 14 15
M  V30 15 1 14 16
M  V30 16 1 15 17
M  V30 17 1 16 18
M  V30 18 2 17 19
M  V30 19 1 17 20
M  V30 20 1 19 21
M  V30 21 2 20 22
M  V30 22 2 21 23
M  V30 23 1 6 8
M  V30 24 1 18 19
M  V30 25 1 22 23
M  V30 END BOND
M  V30 END CTAB
M  END
>  <Structure No>
881

>  <Catalog ID>
Z364384872

>  <MW (desalted)>
312.381

>  <ClogP>
3.683

>  <HBD>
1

>  <TPSA>
32.340

>  <RotBonds>
5

>  <Target>
Poly [ADP-ribose] polymerase-1

>  <fromRegid>
CHEMBL3629672

>  <Similarity>
0.89

$$$$
